     RDKit          3D

  0  0  0  0  0  0  0  0  0  0999 V3000
M  V30 BEGIN CTAB
M  V30 COUNTS 384 408 0 0 0
M  V30 BEGIN ATOM
M  V30 1 O 7.2930 18.8760 11.7260 0
M  V30 2 O 9.2500 18.8290 16.1170 0
M  V30 3 C 8.1520 19.4820 12.6290 0
M  V30 4 C 8.2570 18.8880 13.8930 0
M  V30 5 C 9.1720 19.4280 14.8200 0
M  V30 6 C 9.9540 20.5600 14.4690 0
M  V30 7 C 9.7320 21.0320 13.2470 0
M  V30 8 C 8.9190 20.5600 12.2250 0
M  V30 9 C 10.9030 21.1740 15.5190 0
M  V30 10 C 10.9250 22.6830 15.4090 0
M  V30 11 H 7.7360 18.1500 14.1170 0
M  V30 12 H 10.2020 21.8110 13.0430 0
M  V30 13 H 10.5430 20.9500 16.4020 0
M  V30 14 H 10.0970 23.0380 15.7400 0
M  V30 15 H 11.0370 22.9360 14.4910 0
M  V30 16 H 11.6530 23.0310 15.9300 0
M  V30 17 C 8.8240 21.1740 10.9030 0
M  V30 18 C 9.8740 20.5600 9.9540 0
M  V30 19 C 9.5230 19.4280 9.1720 0
M  V30 20 O 8.2260 18.8290 9.2500 0
M  V30 21 C 10.4500 18.8880 8.2570 0
M  V30 22 C 11.7140 19.4820 8.1520 0
M  V30 23 O 12.6170 18.8760 7.2930 0
M  V30 24 C 12.1180 20.5600 8.9190 0
M  V30 25 C 11.0960 21.0320 9.7320 0
M  V30 26 H 11.3000 21.8110 10.2020 0
M  V30 27 C 13.4400 21.1740 8.8240 0
M  V30 28 C 14.3890 20.5600 9.8740 0
M  V30 29 C 15.1710 19.4280 9.5230 0
M  V30 30 O 15.0930 18.8290 8.2260 0
M  V30 31 C 16.0860 18.8880 10.4500 0
M  V30 32 C 16.1910 19.4820 11.7140 0
M  V30 33 O 17.0500 18.8760 12.6170 0
M  V30 34 C 15.4240 20.5600 12.1180 0
M  V30 35 C 14.6110 21.0320 11.0960 0
M  V30 36 H 14.1410 21.8110 11.3000 0
M  V30 37 C 15.5190 21.1740 13.4400 0
M  V30 38 C 14.4690 20.5600 14.3890 0
M  V30 39 C 14.8200 19.4280 15.1710 0
M  V30 40 O 16.1170 18.8290 15.0930 0
M  V30 41 C 13.8930 18.8880 16.0860 0
M  V30 42 C 12.6290 19.4820 16.1910 0
M  V30 43 O 11.7260 18.8760 17.0500 0
M  V30 44 C 12.2250 20.5600 15.4240 0
M  V30 45 C 13.2470 21.0320 14.6110 0
M  V30 46 H 13.0430 21.8110 14.1410 0
M  V30 47 H 14.1170 18.1500 16.6070 0
M  V30 48 C 15.4090 22.6830 13.4180 0
M  V30 49 H 15.7400 23.0380 14.2460 0
M  V30 50 H 14.4910 22.9360 13.3060 0
M  V30 51 H 15.9300 23.0310 12.6900 0
M  V30 52 H 16.4020 20.9500 13.8000 0
M  V30 53 H 16.6070 18.1500 10.2260 0
M  V30 54 C 13.4180 22.6830 8.9340 0
M  V30 55 H 14.2460 23.0380 8.6030 0
M  V30 56 H 13.3060 22.9360 9.8520 0
M  V30 57 H 12.6900 23.0310 8.4130 0
M  V30 58 H 13.8000 20.9500 7.9410 0
M  V30 59 H 10.2260 18.1500 7.7360 0
M  V30 60 C 8.9340 22.6830 10.9250 0
M  V30 61 H 8.6030 23.0380 10.0970 0
M  V30 62 H 9.8520 22.9360 11.0370 0
M  V30 63 H 8.4130 23.0310 11.6530 0
M  V30 64 H 7.9410 20.9500 10.5430 0
M  V30 65 O 5.4670 7.2930 11.7260 0
M  V30 66 O 5.5140 9.2500 16.1170 0
M  V30 67 C 4.8610 8.1520 12.6290 0
M  V30 68 C 5.4550 8.2570 13.8930 0
M  V30 69 C 4.9150 9.1720 14.8200 0
M  V30 70 C 3.7830 9.9540 14.4690 0
M  V30 71 C 3.3110 9.7320 13.2470 0
M  V30 72 C 3.7830 8.9190 12.2250 0
M  V30 73 C 3.1690 10.9030 15.5190 0
M  V30 74 C 1.6600 10.9250 15.4090 0
M  V30 75 H 6.1930 7.7360 14.1170 0
M  V30 76 H 2.5320 10.2020 13.0430 0
M  V30 77 H 3.3930 10.5430 16.4020 0
M  V30 78 H 1.3050 10.0970 15.7400 0
M  V30 79 H 1.4070 11.0370 14.4910 0
M  V30 80 H 1.3120 11.6530 15.9300 0
M  V30 81 C 3.1690 8.8240 10.9030 0
M  V30 82 C 3.7830 9.8740 9.9540 0
M  V30 83 C 4.9150 9.5230 9.1720 0
M  V30 84 O 5.5140 8.2260 9.2500 0
M  V30 85 C 5.4550 10.4500 8.2570 0
M  V30 86 C 4.8610 11.7140 8.1520 0
M  V30 87 O 5.4670 12.6170 7.2930 0
M  V30 88 C 3.7830 12.1180 8.9190 0
M  V30 89 C 3.3110 11.0960 9.7320 0
M  V30 90 H 2.5320 11.3000 10.2020 0
M  V30 91 C 3.1690 13.4400 8.8240 0
M  V30 92 C 3.7830 14.3890 9.8740 0
M  V30 93 C 4.9150 15.1710 9.5230 0
M  V30 94 O 5.5140 15.0930 8.2260 0
M  V30 95 C 5.4550 16.0860 10.4500 0
M  V30 96 C 4.8610 16.1910 11.7140 0
M  V30 97 O 5.4670 17.0500 12.6170 0
M  V30 98 C 3.7830 15.4240 12.1180 0
M  V30 99 C 3.3110 14.6110 11.0960 0
M  V30 100 H 2.5320 14.1410 11.3000 0
M  V30 101 C 3.1690 15.5190 13.4400 0
M  V30 102 C 3.7830 14.4690 14.3890 0
M  V30 103 C 4.9150 14.8200 15.1710 0
M  V30 104 O 5.5140 16.1170 15.0930 0
M  V30 105 C 5.4550 13.8930 16.0860 0
M  V30 106 C 4.8610 12.6290 16.1910 0
M  V30 107 O 5.4670 11.7260 17.0500 0
M  V30 108 C 3.7830 12.2250 15.4240 0
M  V30 109 C 3.3110 13.2470 14.6110 0
M  V30 110 H 2.5320 13.0430 14.1410 0
M  V30 111 H 6.1930 14.1170 16.6070 0
M  V30 112 C 1.6600 15.4090 13.4180 0
M  V30 113 H 1.3050 15.7400 14.2460 0
M  V30 114 H 1.4070 14.4910 13.3060 0
M  V30 115 H 1.3120 15.9300 12.6900 0
M  V30 116 H 3.3930 16.4020 13.8000 0
M  V30 117 H 6.1930 16.6070 10.2260 0
M  V30 118 C 1.6600 13.4180 8.9340 0
M  V30 119 H 1.3050 14.2460 8.6030 0
M  V30 120 H 1.4070 13.3060 9.8520 0
M  V30 121 H 1.3120 12.6900 8.4130 0
M  V30 122 H 3.3930 13.8000 7.9410 0
M  V30 123 H 6.1930 10.2260 7.7360 0
M  V30 124 C 1.6600 8.9340 10.9250 0
M  V30 125 H 1.3050 8.6030 10.0970 0
M  V30 126 H 1.4070 9.8520 11.0370 0
M  V30 127 H 1.3120 8.4130 11.6530 0
M  V30 128 H 3.3930 7.9410 10.5430 0
M  V30 129 O 7.2930 5.4670 12.6170 0
M  V30 130 O 9.2500 5.5140 8.2260 0
M  V30 131 C 8.1520 4.8610 11.7140 0
M  V30 132 C 8.2570 5.4550 10.4500 0
M  V30 133 C 9.1720 4.9150 9.5230 0
M  V30 134 C 9.9540 3.7830 9.8740 0
M  V30 135 C 9.7320 3.3110 11.0960 0
M  V30 136 C 8.9190 3.7830 12.1180 0
M  V30 137 C 10.9030 3.1690 8.8240 0
M  V30 138 C 10.9250 1.6600 8.9340 0
M  V30 139 H 7.7360 6.1930 10.2260 0
M  V30 140 H 10.2020 2.5320 11.3000 0
M  V30 141 H 10.5430 3.3930 7.9410 0
M  V30 142 H 10.0970 1.3050 8.6030 0
M  V30 143 H 11.0370 1.4070 9.8520 0
M  V30 144 H 11.6530 1.3120 8.4130 0
M  V30 145 C 8.8240 3.1690 13.4400 0
M  V30 146 C 9.8740 3.7830 14.3890 0
M  V30 147 C 9.5230 4.9150 15.1710 0
M  V30 148 O 8.2260 5.5140 15.0930 0
M  V30 149 C 10.4500 5.4550 16.0860 0
M  V30 150 C 11.7140 4.8610 16.1910 0
M  V30 151 O 12.6170 5.4670 17.0500 0
M  V30 152 C 12.1180 3.7830 15.4240 0
M  V30 153 C 11.0960 3.3110 14.6110 0
M  V30 154 H 11.3000 2.5320 14.1410 0
M  V30 155 C 13.4400 3.1690 15.5190 0
M  V30 156 C 14.3890 3.7830 14.4690 0
M  V30 157 C 15.1710 4.9150 14.8200 0
M  V30 158 O 15.0930 5.5140 16.1170 0
M  V30 159 C 16.0860 5.4550 13.8930 0
M  V30 160 C 16.1910 4.8610 12.6290 0
M  V30 161 O 17.0500 5.4670 11.7260 0
M  V30 162 C 15.4240 3.7830 12.2250 0
M  V30 163 C 14.6110 3.3110 13.2470 0
M  V30 164 H 14.1410 2.5320 13.0430 0
M  V30 165 C 15.5190 3.1690 10.9030 0
M  V30 166 C 14.4690 3.7830 9.9540 0
M  V30 167 C 14.8200 4.9150 9.1720 0
M  V30 168 O 16.1170 5.5140 9.2500 0
M  V30 169 C 13.8930 5.4550 8.2570 0
M  V30 170 C 12.6290 4.8610 8.1520 0
M  V30 171 O 11.7260 5.4670 7.2930 0
M  V30 172 C 12.2250 3.7830 8.9190 0
M  V30 173 C 13.2470 3.3110 9.7320 0
M  V30 174 H 13.0430 2.5320 10.2020 0
M  V30 175 H 14.1170 6.1930 7.7360 0
M  V30 176 C 15.4090 1.6600 10.9250 0
M  V30 177 H 15.7400 1.3050 10.0970 0
M  V30 178 H 14.4910 1.4070 11.0370 0
M  V30 179 H 15.9300 1.3120 11.6530 0
M  V30 180 H 16.4020 3.3930 10.5430 0
M  V30 181 H 16.6070 6.1930 14.1170 0
M  V30 182 C 13.4180 1.6600 15.4090 0
M  V30 183 H 14.2460 1.3050 15.7400 0
M  V30 184 H 13.3060 1.4070 14.4910 0
M  V30 185 H 12.6900 1.3120 15.9300 0
M  V30 186 H 13.8000 3.3930 16.4020 0
M  V30 187 H 10.2260 6.1930 16.6070 0
M  V30 188 C 8.9340 1.6600 13.4180 0
M  V30 189 H 8.6030 1.3050 14.2460 0
M  V30 190 H 9.8520 1.4070 13.3060 0
M  V30 191 H 8.4130 1.3120 12.6900 0
M  V30 192 H 7.9410 3.3930 13.8000 0
M  V30 193 O 11.7260 7.2930 18.8760 0
M  V30 194 O 16.1170 9.2500 18.8290 0
M  V30 195 C 12.6290 8.1520 19.4820 0
M  V30 196 C 13.8930 8.2570 18.8880 0
M  V30 197 C 14.8200 9.1720 19.4280 0
M  V30 198 C 14.4690 9.9540 20.5600 0
M  V30 199 C 13.2470 9.7320 21.0320 0
M  V30 200 C 12.2250 8.9190 20.5600 0
M  V30 201 C 15.5190 10.9030 21.1740 0
M  V30 202 C 15.4090 10.9250 22.6830 0
M  V30 203 H 14.1170 7.7360 18.1500 0
M  V30 204 H 13.0430 10.2020 21.8110 0
M  V30 205 H 16.4020 10.5430 20.9500 0
M  V30 206 H 15.7400 10.0970 23.0380 0
M  V30 207 H 14.4910 11.0370 22.9360 0
M  V30 208 H 15.9300 11.6530 23.0310 0
M  V30 209 C 10.9030 8.8240 21.1740 0
M  V30 210 C 9.9540 9.8740 20.5600 0
M  V30 211 C 9.1720 9.5230 19.4280 0
M  V30 212 O 9.2500 8.2260 18.8290 0
M  V30 213 C 8.2570 10.4500 18.8880 0
M  V30 214 C 8.1520 11.7140 19.4820 0
M  V30 215 O 7.2930 12.6170 18.8760 0
M  V30 216 C 8.9190 12.1180 20.5600 0
M  V30 217 C 9.7320 11.0960 21.0320 0
M  V30 218 H 10.2020 11.3000 21.8110 0
M  V30 219 C 8.8240 13.4400 21.1740 0
M  V30 220 C 9.8740 14.3890 20.5600 0
M  V30 221 C 9.5230 15.1710 19.4280 0
M  V30 222 O 8.2260 15.0930 18.8290 0
M  V30 223 C 10.4500 16.0860 18.8880 0
M  V30 224 C 11.7140 16.1910 19.4820 0
M  V30 225 O 12.6170 17.0500 18.8760 0
M  V30 226 C 12.1180 15.4240 20.5600 0
M  V30 227 C 11.0960 14.6110 21.0320 0
M  V30 228 H 11.3000 14.1410 21.8110 0
M  V30 229 C 13.4400 15.5190 21.1740 0
M  V30 230 C 14.3890 14.4690 20.5600 0
M  V30 231 C 15.1710 14.8200 19.4280 0
M  V30 232 O 15.0930 16.1170 18.8290 0
M  V30 233 C 16.0860 13.8930 18.8880 0
M  V30 234 C 16.1910 12.6290 19.4820 0
M  V30 235 O 17.0500 11.7260 18.8760 0
M  V30 236 C 15.4240 12.2250 20.5600 0
M  V30 237 C 14.6110 13.2470 21.0320 0
M  V30 238 H 14.1410 13.0430 21.8110 0
M  V30 239 H 16.6070 14.1170 18.1500 0
M  V30 240 C 13.4180 15.4090 22.6830 0
M  V30 241 H 14.2460 15.7400 23.0380 0
M  V30 242 H 13.3060 14.4910 22.9360 0
M  V30 243 H 12.6900 15.9300 23.0310 0
M  V30 244 H 13.8000 16.4020 20.9500 0
M  V30 245 H 10.2260 16.6070 18.1500 0
M  V30 246 C 8.9340 13.4180 22.6830 0
M  V30 247 H 8.6030 14.2460 23.0380 0
M  V30 248 H 9.8520 13.3060 22.9360 0
M  V30 249 H 8.4130 12.6900 23.0310 0
M  V30 250 H 7.9410 13.8000 20.9500 0
M  V30 251 H 7.7360 10.2260 18.1500 0
M  V30 252 C 10.9250 8.9340 22.6830 0
M  V30 253 H 10.0970 8.6030 23.0380 0
M  V30 254 H 11.0370 9.8520 22.9360 0
M  V30 255 H 11.6530 8.4130 23.0310 0
M  V30 256 H 10.5430 7.9410 20.9500 0
M  V30 257 O 18.8760 7.2930 12.6170 0
M  V30 258 O 18.8290 9.2500 8.2260 0
M  V30 259 C 19.4820 8.1520 11.7140 0
M  V30 260 C 18.8880 8.2570 10.4500 0
M  V30 261 C 19.4280 9.1720 9.5230 0
M  V30 262 C 20.5600 9.9540 9.8740 0
M  V30 263 C 21.0320 9.7320 11.0960 0
M  V30 264 C 20.5600 8.9190 12.1180 0
M  V30 265 C 21.1740 10.9030 8.8240 0
M  V30 266 C 22.6830 10.9250 8.9340 0
M  V30 267 H 18.1500 7.7360 10.2260 0
M  V30 268 H 21.8110 10.2020 11.3000 0
M  V30 269 H 20.9500 10.5430 7.9410 0
M  V30 270 H 23.0380 10.0970 8.6030 0
M  V30 271 H 22.9360 11.0370 9.8520 0
M  V30 272 H 23.0310 11.6530 8.4130 0
M  V30 273 C 21.1740 8.8240 13.4400 0
M  V30 274 C 20.5600 9.8740 14.3890 0
M  V30 275 C 19.4280 9.5230 15.1710 0
M  V30 276 O 18.8290 8.2260 15.0930 0
M  V30 277 C 18.8880 10.4500 16.0860 0
M  V30 278 C 19.4820 11.7140 16.1910 0
M  V30 279 O 18.8760 12.6170 17.0500 0
M  V30 280 C 20.5600 12.1180 15.4240 0
M  V30 281 C 21.0320 11.0960 14.6110 0
M  V30 282 H 21.8110 11.3000 14.1410 0
M  V30 283 C 21.1740 13.4400 15.5190 0
M  V30 284 C 20.5600 14.3890 14.4690 0
M  V30 285 C 19.4280 15.1710 14.8200 0
M  V30 286 O 18.8290 15.0930 16.1170 0
M  V30 287 C 18.8880 16.0860 13.8930 0
M  V30 288 C 19.4820 16.1910 12.6290 0
M  V30 289 O 18.8760 17.0500 11.7260 0
M  V30 290 C 20.5600 15.4240 12.2250 0
M  V30 291 C 21.0320 14.6110 13.2470 0
M  V30 292 H 21.8110 14.1410 13.0430 0
M  V30 293 C 21.1740 15.5190 10.9030 0
M  V30 294 C 20.5600 14.4690 9.9540 0
M  V30 295 C 19.4280 14.8200 9.1720 0
M  V30 296 O 18.8290 16.1170 9.2500 0
M  V30 297 C 18.8880 13.8930 8.2570 0
M  V30 298 C 19.4820 12.6290 8.1520 0
M  V30 299 O 18.8760 11.7260 7.2930 0
M  V30 300 C 20.5600 12.2250 8.9190 0
M  V30 301 C 21.0320 13.2470 9.7320 0
M  V30 302 H 21.8110 13.0430 10.2020 0
M  V30 303 H 18.1500 14.1170 7.7360 0
M  V30 304 C 22.6830 15.4090 10.9250 0
M  V30 305 H 23.0380 15.7400 10.0970 0
M  V30 306 H 22.9360 14.4910 11.0370 0
M  V30 307 H 23.0310 15.9300 11.6530 0
M  V30 308 H 20.9500 16.4020 10.5430 0
M  V30 309 H 18.1500 16.6070 14.1170 0
M  V30 310 C 22.6830 13.4180 15.4090 0
M  V30 311 H 23.0380 14.2460 15.7400 0
M  V30 312 H 22.9360 13.3060 14.4910 0
M  V30 313 H 23.0310 12.6900 15.9300 0
M  V30 314 H 20.9500 13.8000 16.4020 0
M  V30 315 H 18.1500 10.2260 16.6070 0
M  V30 316 C 22.6830 8.9340 13.4180 0
M  V30 317 H 23.0380 8.6030 14.2460 0
M  V30 318 H 22.9360 9.8520 13.3060 0
M  V30 319 H 23.0310 8.4130 12.6900 0
M  V30 320 H 20.9500 7.9410 13.8000 0
M  V30 321 O 11.7260 17.0500 5.4670 0
M  V30 322 O 16.1170 15.0930 5.5140 0
M  V30 323 C 12.6290 16.1910 4.8610 0
M  V30 324 C 13.8930 16.0860 5.4550 0
M  V30 325 C 14.8200 15.1710 4.9150 0
M  V30 326 C 14.4690 14.3890 3.7830 0
M  V30 327 C 13.2470 14.6110 3.3110 0
M  V30 328 C 12.2250 15.4240 3.7830 0
M  V30 329 C 15.5190 13.4400 3.1690 0
M  V30 330 C 15.4090 13.4180 1.6600 0
M  V30 331 H 14.1170 16.6070 6.1930 0
M  V30 332 H 13.0430 14.1410 2.5320 0
M  V30 333 H 16.4020 13.8000 3.3930 0
M  V30 334 H 15.7400 14.2460 1.3050 0
M  V30 335 H 14.4910 13.3060 1.4070 0
M  V30 336 H 15.9300 12.6900 1.3120 0
M  V30 337 C 10.9030 15.5190 3.1690 0
M  V30 338 C 9.9540 14.4690 3.7830 0
M  V30 339 C 9.1720 14.8200 4.9150 0
M  V30 340 O 9.2500 16.1170 5.5140 0
M  V30 341 C 8.2570 13.8930 5.4550 0
M  V30 342 C 8.1520 12.6290 4.8610 0
M  V30 343 O 7.2930 11.7260 5.4670 0
M  V30 344 C 8.9190 12.2250 3.7830 0
M  V30 345 C 9.7320 13.2470 3.3110 0
M  V30 346 H 10.2020 13.0430 2.5320 0
M  V30 347 C 8.8240 10.9030 3.1690 0
M  V30 348 C 9.8740 9.9540 3.7830 0
M  V30 349 C 9.5230 9.1720 4.9150 0
M  V30 350 O 8.2260 9.2500 5.5140 0
M  V30 351 C 10.4500 8.2570 5.4550 0
M  V30 352 C 11.7140 8.1520 4.8610 0
M  V30 353 O 12.6170 7.2930 5.4670 0
M  V30 354 C 12.1180 8.9190 3.7830 0
M  V30 355 C 11.0960 9.7320 3.3110 0
M  V30 356 H 11.3000 10.2020 2.5320 0
M  V30 357 C 13.4400 8.8240 3.1690 0
M  V30 358 C 14.3890 9.8740 3.7830 0
M  V30 359 C 15.1710 9.5230 4.9150 0
M  V30 360 O 15.0930 8.2260 5.5140 0
M  V30 361 C 16.0860 10.4500 5.4550 0
M  V30 362 C 16.1910 11.7140 4.8610 0
M  V30 363 O 17.0500 12.6170 5.4670 0
M  V30 364 C 15.4240 12.1180 3.7830 0
M  V30 365 C 14.6110 11.0960 3.3110 0
M  V30 366 H 14.1410 11.3000 2.5320 0
M  V30 367 H 16.6070 10.2260 6.1930 0
M  V30 368 C 13.4180 8.9340 1.6600 0
M  V30 369 H 14.2460 8.6030 1.3050 0
M  V30 370 H 13.3060 9.8520 1.4070 0
M  V30 371 H 12.6900 8.4130 1.3120 0
M  V30 372 H 13.8000 7.9410 3.3930 0
M  V30 373 H 10.2260 7.7360 6.1930 0
M  V30 374 C 8.9340 10.9250 1.6600 0
M  V30 375 H 8.6030 10.0970 1.3050 0
M  V30 376 H 9.8520 11.0370 1.4070 0
M  V30 377 H 8.4130 11.6530 1.3120 0
M  V30 378 H 7.9410 10.5430 3.3930 0
M  V30 379 H 7.7360 14.1170 6.1930 0
M  V30 380 C 10.9250 15.4090 1.6600 0
M  V30 381 H 10.0970 15.7400 1.3050 0
M  V30 382 H 11.0370 14.4910 1.4070 0
M  V30 383 H 11.6530 15.9300 1.3120 0
M  V30 384 H 10.5430 16.4020 3.3930 0
M  V30 END ATOM
M  V30 BEGIN BOND
M  V30 1 1   1   3
M  V30 2 1   2   5
M  V30 3 1   3   8
M  V30 4 1   3   4
M  V30 5 1   4  11
M  V30 6 1   4   5
M  V30 7 1   5   6
M  V30 8 1   6   7
M  V30 9 1   6   9
M  V30 10 1   7   8
M  V30 11 1   7  12
M  V30 12 1   8  17
M  V30 13 1   9  10
M  V30 14 1   9  44
M  V30 15 1   9  13
M  V30 16 1  10  15
M  V30 17 1  10  14
M  V30 18 1  10  16
M  V30 19 1  17  18
M  V30 20 1  17  64
M  V30 21 1  17  60
M  V30 22 1  18  19
M  V30 23 1  18  25
M  V30 24 1  19  21
M  V30 25 1  19  20
M  V30 26 1  21  59
M  V30 27 1  21  22
M  V30 28 1  22  23
M  V30 29 1  22  24
M  V30 30 1  24  27
M  V30 31 1  24  25
M  V30 32 1  25  26
M  V30 33 1  27  58
M  V30 34 1  27  54
M  V30 35 1  27  28
M  V30 36 1  28  29
M  V30 37 1  28  35
M  V30 38 1  29  30
M  V30 39 1  29  31
M  V30 40 1  31  53
M  V30 41 1  31  32
M  V30 42 1  32  34
M  V30 43 1  32  33
M  V30 44 1  34  35
M  V30 45 1  34  37
M  V30 46 1  35  36
M  V30 47 1  37  48
M  V30 48 1  37  52
M  V30 49 1  37  38
M  V30 50 1  38  45
M  V30 51 1  38  39
M  V30 52 1  39  40
M  V30 53 1  39  41
M  V30 54 1  41  42
M  V30 55 1  41  47
M  V30 56 1  42  44
M  V30 57 1  42  43
M  V30 58 1  44  45
M  V30 59 1  45  46
M  V30 60 1  48  51
M  V30 61 1  48  50
M  V30 62 1  48  49
M  V30 63 1  54  57
M  V30 64 1  54  55
M  V30 65 1  54  56
M  V30 66 1  60  61
M  V30 67 1  60  62
M  V30 68 1  60  63
M  V30 69 1  65  67
M  V30 70 1  66  69
M  V30 71 1  67  72
M  V30 72 1  67  68
M  V30 73 1  68  75
M  V30 74 1  68  69
M  V30 75 1  69  70
M  V30 76 1  70  71
M  V30 77 1  70  73
M  V30 78 1  71  72
M  V30 79 1  71  76
M  V30 80 1  72  81
M  V30 81 1  73  74
M  V30 82 1  73 108
M  V30 83 1  73  77
M  V30 84 1  74  79
M  V30 85 1  74  78
M  V30 86 1  74  80
M  V30 87 1  81  82
M  V30 88 1  81 128
M  V30 89 1  81 124
M  V30 90 1  82  83
M  V30 91 1  82  89
M  V30 92 1  83  85
M  V30 93 1  83  84
M  V30 94 1  85 123
M  V30 95 1  85  86
M  V30 96 1  86  87
M  V30 97 1  86  88
M  V30 98 1  88  91
M  V30 99 1  88  89
M  V30 100 1  89  90
M  V30 101 1  91 122
M  V30 102 1  91 118
M  V30 103 1  91  92
M  V30 104 1  92  93
M  V30 105 1  92  99
M  V30 106 1  93  94
M  V30 107 1  93  95
M  V30 108 1  95 117
M  V30 109 1  95  96
M  V30 110 1  96  98
M  V30 111 1  96  97
M  V30 112 1  98  99
M  V30 113 1  98 101
M  V30 114 1  99 100
M  V30 115 1 101 112
M  V30 116 1 101 116
M  V30 117 1 101 102
M  V30 118 1 102 109
M  V30 119 1 102 103
M  V30 120 1 103 104
M  V30 121 1 103 105
M  V30 122 1 105 106
M  V30 123 1 105 111
M  V30 124 1 106 108
M  V30 125 1 106 107
M  V30 126 1 108 109
M  V30 127 1 109 110
M  V30 128 1 112 115
M  V30 129 1 112 114
M  V30 130 1 112 113
M  V30 131 1 118 121
M  V30 132 1 118 119
M  V30 133 1 118 120
M  V30 134 1 124 125
M  V30 135 1 124 126
M  V30 136 1 124 127
M  V30 137 1 129 131
M  V30 138 1 130 133
M  V30 139 1 131 132
M  V30 140 1 131 136
M  V30 141 1 132 133
M  V30 142 1 132 139
M  V30 143 1 133 134
M  V30 144 1 134 137
M  V30 145 1 134 135
M  V30 146 1 135 140
M  V30 147 1 135 136
M  V30 148 1 136 145
M  V30 149 1 137 141
M  V30 150 1 137 172
M  V30 151 1 137 138
M  V30 152 1 138 144
M  V30 153 1 138 142
M  V30 154 1 138 143
M  V30 155 1 145 188
M  V30 156 1 145 192
M  V30 157 1 145 146
M  V30 158 1 146 153
M  V30 159 1 146 147
M  V30 160 1 147 148
M  V30 161 1 147 149
M  V30 162 1 149 150
M  V30 163 1 149 187
M  V30 164 1 150 152
M  V30 165 1 150 151
M  V30 166 1 152 153
M  V30 167 1 152 155
M  V30 168 1 153 154
M  V30 169 1 155 156
M  V30 170 1 155 182
M  V30 171 1 155 186
M  V30 172 1 156 163
M  V30 173 1 156 157
M  V30 174 1 157 159
M  V30 175 1 157 158
M  V30 176 1 159 160
M  V30 177 1 159 181
M  V30 178 1 160 161
M  V30 179 1 160 162
M  V30 180 1 162 165
M  V30 181 1 162 163
M  V30 182 1 163 164
M  V30 183 1 165 166
M  V30 184 1 165 180
M  V30 185 1 165 176
M  V30 186 1 166 167
M  V30 187 1 166 173
M  V30 188 1 167 169
M  V30 189 1 167 168
M  V30 190 1 169 175
M  V30 191 1 169 170
M  V30 192 1 170 171
M  V30 193 1 170 172
M  V30 194 1 172 173
M  V30 195 1 173 174
M  V30 196 1 176 177
M  V30 197 1 176 178
M  V30 198 1 176 179
M  V30 199 1 182 184
M  V30 200 1 182 183
M  V30 201 1 182 185
M  V30 202 1 188 191
M  V30 203 1 188 190
M  V30 204 1 188 189
M  V30 205 1 193 195
M  V30 206 1 194 197
M  V30 207 1 195 196
M  V30 208 1 195 200
M  V30 209 1 196 203
M  V30 210 1 196 197
M  V30 211 1 197 198
M  V30 212 1 198 199
M  V30 213 1 198 201
M  V30 214 1 199 200
M  V30 215 1 199 204
M  V30 216 1 200 209
M  V30 217 1 201 236
M  V30 218 1 201 205
M  V30 219 1 201 202
M  V30 220 1 202 207
M  V30 221 1 202 208
M  V30 222 1 202 206
M  V30 223 1 209 210
M  V30 224 1 209 256
M  V30 225 1 209 252
M  V30 226 1 210 211
M  V30 227 1 210 217
M  V30 228 1 211 212
M  V30 229 1 211 213
M  V30 230 1 213 251
M  V30 231 1 213 214
M  V30 232 1 214 215
M  V30 233 1 214 216
M  V30 234 1 216 217
M  V30 235 1 216 219
M  V30 236 1 217 218
M  V30 237 1 219 220
M  V30 238 1 219 250
M  V30 239 1 219 246
M  V30 240 1 220 221
M  V30 241 1 220 227
M  V30 242 1 221 222
M  V30 243 1 221 223
M  V30 244 1 223 245
M  V30 245 1 223 224
M  V30 246 1 224 225
M  V30 247 1 224 226
M  V30 248 1 226 227
M  V30 249 1 226 229
M  V30 250 1 227 228
M  V30 251 1 229 230
M  V30 252 1 229 244
M  V30 253 1 229 240
M  V30 254 1 230 231
M  V30 255 1 230 237
M  V30 256 1 231 232
M  V30 257 1 231 233
M  V30 258 1 233 239
M  V30 259 1 233 234
M  V30 260 1 234 235
M  V30 261 1 234 236
M  V30 262 1 236 237
M  V30 263 1 237 238
M  V30 264 1 240 242
M  V30 265 1 240 243
M  V30 266 1 240 241
M  V30 267 1 246 248
M  V30 268 1 246 249
M  V30 269 1 246 247
M  V30 270 1 252 254
M  V30 271 1 252 255
M  V30 272 1 252 253
M  V30 273 1 257 259
M  V30 274 1 258 261
M  V30 275 1 259 260
M  V30 276 1 259 264
M  V30 277 1 260 261
M  V30 278 1 260 267
M  V30 279 1 261 262
M  V30 280 1 262 265
M  V30 281 1 262 263
M  V30 282 1 263 268
M  V30 283 1 263 264
M  V30 284 1 264 273
M  V30 285 1 265 269
M  V30 286 1 265 300
M  V30 287 1 265 266
M  V30 288 1 266 272
M  V30 289 1 266 270
M  V30 290 1 266 271
M  V30 291 1 273 316
M  V30 292 1 273 320
M  V30 293 1 273 274
M  V30 294 1 274 281
M  V30 295 1 274 275
M  V30 296 1 275 276
M  V30 297 1 275 277
M  V30 298 1 277 278
M  V30 299 1 277 315
M  V30 300 1 278 280
M  V30 301 1 278 279
M  V30 302 1 280 281
M  V30 303 1 280 283
M  V30 304 1 281 282
M  V30 305 1 283 284
M  V30 306 1 283 310
M  V30 307 1 283 314
M  V30 308 1 284 291
M  V30 309 1 284 285
M  V30 310 1 285 287
M  V30 311 1 285 286
M  V30 312 1 287 288
M  V30 313 1 287 309
M  V30 314 1 288 289
M  V30 315 1 288 290
M  V30 316 1 290 293
M  V30 317 1 290 291
M  V30 318 1 291 292
M  V30 319 1 293 294
M  V30 320 1 293 308
M  V30 321 1 293 304
M  V30 322 1 294 295
M  V30 323 1 294 301
M  V30 324 1 295 297
M  V30 325 1 295 296
M  V30 326 1 297 303
M  V30 327 1 297 298
M  V30 328 1 298 299
M  V30 329 1 298 300
M  V30 330 1 300 301
M  V30 331 1 301 302
M  V30 332 1 304 305
M  V30 333 1 304 306
M  V30 334 1 304 307
M  V30 335 1 310 312
M  V30 336 1 310 311
M  V30 337 1 310 313
M  V30 338 1 316 319
M  V30 339 1 316 318
M  V30 340 1 316 317
M  V30 341 1 321 323
M  V30 342 1 322 325
M  V30 343 1 323 328
M  V30 344 1 323 324
M  V30 345 1 324 325
M  V30 346 1 324 331
M  V30 347 1 325 326
M  V30 348 1 326 329
M  V30 349 1 326 327
M  V30 350 1 327 332
M  V30 351 1 327 328
M  V30 352 1 328 337
M  V30 353 1 329 330
M  V30 354 1 329 333
M  V30 355 1 329 364
M  V30 356 1 330 334
M  V30 357 1 330 336
M  V30 358 1 330 335
M  V30 359 1 337 380
M  V30 360 1 337 384
M  V30 361 1 337 338
M  V30 362 1 338 345
M  V30 363 1 338 339
M  V30 364 1 339 341
M  V30 365 1 339 340
M  V30 366 1 341 342
M  V30 367 1 341 379
M  V30 368 1 342 344
M  V30 369 1 342 343
M  V30 370 1 344 347
M  V30 371 1 344 345
M  V30 372 1 345 346
M  V30 373 1 347 374
M  V30 374 1 347 378
M  V30 375 1 347 348
M  V30 376 1 348 355
M  V30 377 1 348 349
M  V30 378 1 349 351
M  V30 379 1 349 350
M  V30 380 1 351 352
M  V30 381 1 351 373
M  V30 382 1 352 354
M  V30 383 1 352 353
M  V30 384 1 354 357
M  V30 385 1 354 355
M  V30 386 1 355 356
M  V30 387 1 357 368
M  V30 388 1 357 372
M  V30 389 1 357 358
M  V30 390 1 358 365
M  V30 391 1 358 359
M  V30 392 1 359 361
M  V30 393 1 359 360
M  V30 394 1 361 362
M  V30 395 1 361 367
M  V30 396 1 362 364
M  V30 397 1 362 363
M  V30 398 1 364 365
M  V30 399 1 365 366
M  V30 400 1 368 369
M  V30 401 1 368 371
M  V30 402 1 368 370
M  V30 403 1 374 375
M  V30 404 1 374 377
M  V30 405 1 374 376
M  V30 406 1 380 381
M  V30 407 1 380 383
M  V30 408 1 380 382
M  V30 409 1 M   END
M  V30 END BOND
M  V30 END CTAB

