     RDKit          3D

  0  0  0  0  0  0  0  0  0  0999 V3000
M  V30 BEGIN CTAB
M  V30 COUNTS 280 318 0 0 0
M  V30 BEGIN ATOM
M  V30 1 Ti 0.0000 0.0000 12.6950 0
M  V30 2 O 1.5690 0.4960 13.8450 0
M  V30 3 O -1.2140 1.1100 13.8450 0
M  V30 4 O -0.3540 -1.6070 13.8450 0
M  V30 5 O 1.4400 -0.7000 11.5940 0
M  V30 6 O -0.1140 1.5980 11.5940 0
M  V30 7 O -1.3270 -0.8970 11.5940 0
M  V30 8 C 2.7650 0.2800 13.2670 0
M  V30 9 C -1.6250 2.2550 13.2670 0
M  V30 10 C -1.1400 -2.5340 13.2670 0
M  V30 11 C 2.6720 -0.4120 12.0490 0
M  V30 12 C -0.9800 2.5200 12.0490 0
M  V30 13 C -1.6930 -2.1080 12.0490 0
M  V30 14 C 4.0120 0.6820 13.7640 0
M  V30 15 C -2.5970 3.1340 13.7640 0
M  V30 16 C -1.4150 -3.8160 13.7640 0
M  V30 17 C 3.8420 -0.6930 11.3060 0
M  V30 18 C -1.3200 3.6730 11.3060 0
M  V30 19 C -2.5210 -2.9800 11.3060 0
M  V30 20 C 5.1670 0.4330 13.0090 0
M  V30 21 C 4.1900 1.3900 15.0290 0
M  V30 22 C -2.9590 4.2580 13.0090 0
M  V30 23 C -3.2990 2.9330 15.0290 0
M  V30 24 C -2.2080 -4.6920 13.0090 0
M  V30 25 C -0.8910 -4.3230 15.0290 0
M  V30 26 H 3.7880 -1.1530 10.4840 0
M  V30 27 C 5.0830 -0.2800 11.8130 0
M  V30 28 H -0.8950 3.8580 10.4840 0
M  V30 29 C -2.2990 4.5420 11.8130 0
M  V30 30 H -2.8930 -2.7040 10.4840 0
M  V30 31 C -2.7840 -4.2620 11.8130 0
M  V30 32 H 6.0080 0.7530 13.3130 0
M  V30 33 O 5.3280 1.8200 15.4360 0
M  V30 34 N 3.0780 1.6700 15.7120 0
M  V30 35 H -3.6560 4.8270 13.3130 0
M  V30 36 O -4.2400 3.7040 15.4360 0
M  V30 37 N -2.9850 1.8300 15.7120 0
M  V30 38 H -2.3520 -5.5800 13.3130 0
M  V30 39 O -1.0880 -5.5240 15.4360 0
M  V30 40 N -0.0930 -3.5000 15.7120 0
M  V30 41 H 5.8780 -0.4910 11.3340 0
M  V30 42 H -2.5140 5.3360 11.3340 0
M  V30 43 H -3.3640 -4.8450 11.3340 0
M  V30 44 H 2.3270 1.3480 15.3900 0
M  V30 45 C 2.9700 2.4440 16.9410 0
M  V30 46 H -2.3310 1.3410 15.3900 0
M  V30 47 C -3.6020 1.3500 16.9410 0
M  V30 48 H 0.0040 -2.6900 15.3900 0
M  V30 49 C 0.6320 -3.7940 16.9410 0
M  V30 50 C 3.9370 2.2460 17.9400 0
M  V30 51 C 1.8770 3.2910 17.1740 0
M  V30 52 C -3.9130 2.2870 17.9400 0
M  V30 53 C -3.7880 -0.0200 17.1740 0
M  V30 54 C -0.0240 -4.5330 17.9400 0
M  V30 55 C 1.9110 -3.2710 17.1740 0
M  V30 56 H 4.6250 1.5990 17.8270 0
M  V30 57 C 3.8660 3.0160 19.1040 0
M  V30 58 C 1.8190 4.0810 18.3370 0
M  V30 59 C 0.8910 3.4600 16.1650 0
M  V30 60 H -3.6980 3.2060 17.8270 0
M  V30 61 C -4.5450 1.8390 19.1040 0
M  V30 62 C -4.4440 -0.4660 18.3370 0
M  V30 63 C -3.4420 -0.9590 16.1650 0
M  V30 64 H -0.9280 -4.8050 17.8270 0
M  V30 65 C 0.6800 -4.8560 19.1040 0
M  V30 66 C 2.6250 -3.6160 18.3370 0
M  V30 67 C 2.5510 -2.5020 16.1650 0
M  V30 68 H 4.5450 2.9260 19.7570 0
M  V30 69 C 2.8080 3.9240 19.3220 0
M  V30 70 C 0.7440 4.9640 18.5400 0
M  V30 71 H 0.9430 2.9770 15.3570 0
M  V30 72 C -0.1540 4.3580 16.4020 0
M  V30 73 H -4.8070 2.4730 19.7570 0
M  V30 74 C -4.8020 0.4690 19.3220 0
M  V30 75 C -4.6710 -1.8380 18.5400 0
M  V30 76 H -3.0490 -0.6720 15.3570 0
M  V30 77 C -3.6970 -2.3120 16.4020 0
M  V30 78 H 0.2620 -5.3990 19.7570 0
M  V30 79 C 1.9950 -4.3940 19.3220 0
M  V30 80 C 3.9270 -3.1270 18.5400 0
M  V30 81 H 2.1060 -2.3050 15.3570 0
M  V30 82 C 3.8510 -2.0450 16.4020 0
M  V30 83 H 2.7670 4.4240 20.1330 0
M  V30 84 N 0.7880 5.8490 19.6470 0
M  V30 85 C -0.2600 5.1140 17.5750 0
M  V30 86 H -0.8250 4.4590 15.7340 0
M  V30 87 H -5.2150 0.1840 20.1330 0
M  V30 88 N -5.4590 -2.2420 19.6470 0
M  V30 89 C -4.2990 -2.7820 17.5750 0
M  V30 90 H -3.4490 -2.9440 15.7340 0
M  V30 91 H 2.4480 -4.6090 20.1330 0
M  V30 92 N 4.6710 -3.6070 19.6470 0
M  V30 93 C 4.5590 -2.3320 17.5750 0
M  V30 94 H 4.2740 -1.5150 15.7340 0
M  V30 95 H 1.3960 5.6410 20.2470 0
M  V30 96 C 0.0580 6.9680 19.9550 0
M  V30 97 H -0.9880 5.7080 17.7120 0
M  V30 98 H -5.5830 -1.6120 20.2470 0
M  V30 99 C -6.0640 -3.4330 19.9550 0
M  V30 100 H -4.4490 -3.7100 17.7120 0
M  V30 101 H 4.1880 -4.0290 20.2470 0
M  V30 102 C 6.0050 -3.5340 19.9550 0
M  V30 103 H 5.4370 -1.9980 17.7120 0
M  V30 104 O -0.9450 7.2980 19.1730 0
M  V30 105 C 0.4660 7.7710 21.0700 0
M  V30 106 O -5.8480 -4.4680 19.1730 0
M  V30 107 C -6.9630 -3.4820 21.0700 0
M  V30 108 O 6.7930 -2.8300 19.1730 0
M  V30 109 C 6.4970 -4.2890 21.0700 0
M  V30 110 C -0.3140 8.9340 21.3500 0
M  V30 111 C 1.5700 7.4880 21.8810 0
M  V30 112 C -7.5800 -4.7390 21.3500 0
M  V30 113 C -7.2690 -2.3850 21.8810 0
M  V30 114 C 7.8940 -4.1950 21.3500 0
M  V30 115 C 5.7000 -5.1030 21.8810 0
M  V30 116 H -1.0840 9.1450 20.8360 0
M  V30 117 C 0.0910 9.7460 22.4050 0
M  V30 118 Ti 3.8360 6.3380 23.1300 0
M  V30 119 O 2.3570 6.4010 21.7850 0
M  V30 120 C 1.9090 8.3000 22.9620 0
M  V30 121 H -7.3780 -5.5110 20.8360 0
M  V30 122 C -8.4860 -4.7940 22.4050 0
M  V30 123 Ti -7.4070 0.1530 23.1300 0
M  V30 124 O -6.7220 -1.1590 21.7850 0
M  V30 125 C -8.1430 -2.4970 22.9620 0
M  V30 126 H 8.4620 -3.6340 20.8360 0
M  V30 127 C 8.3950 -4.9520 22.4050 0
M  V30 128 Ti 3.5710 -6.4910 23.1300 0
M  V30 129 O 4.3650 -5.2420 21.7850 0
M  V30 130 C 6.2330 -5.8040 22.9620 0
M  V30 131 H -0.4100 10.5370 22.5700 0
M  V30 132 C 1.1740 9.4810 23.2270 0
M  V30 133 O 2.9950 7.9820 23.6980 0
M  V30 134 O 4.7590 4.8270 22.2560 0
M  V30 135 O 5.1600 7.3020 22.1760 0
M  V30 136 O 4.8680 6.2660 24.7910 0
M  V30 137 O 2.7150 5.1360 24.1760 0
M  V30 138 C 5.8760 5.1450 21.5620 0
M  V30 139 C 6.0500 6.5360 21.4840 0
M  V30 140 C 4.3580 5.5270 25.7180 0
M  V30 141 C 3.0870 4.9610 25.4760 0
M  V30 142 H -8.9200 -5.6230 22.5700 0
M  V30 143 C -8.7970 -3.7240 23.2270 0
M  V30 144 O -8.4110 -1.3970 23.6980 0
M  V30 145 O -6.5600 1.7080 22.2560 0
M  V30 146 O -8.9040 0.8180 22.1760 0
M  V30 147 O -7.8600 1.0830 24.7910 0
M  V30 148 O -5.8050 -0.2170 24.1760 0
M  V30 149 C -7.3930 2.5160 21.5620 0
M  V30 150 C -8.6860 1.9710 21.4840 0
M  V30 151 C -6.9660 1.0110 25.7180 0
M  V30 152 C -5.8390 0.1930 25.4760 0
M  V30 153 H 9.3300 -4.9140 22.5700 0
M  V30 154 C 7.6240 -5.7570 23.2270 0
M  V30 155 O 5.4150 -6.5850 23.6980 0
M  V30 156 O 1.8010 -6.5350 22.2560 0
M  V30 157 O 3.7440 -8.1200 22.1760 0
M  V30 158 O 2.9920 -7.3490 24.7910 0
M  V30 159 O 3.0900 -4.9190 24.1760 0
M  V30 160 C 1.5170 -7.6610 21.5620 0
M  V30 161 C 2.6360 -8.5080 21.4840 0
M  V30 162 C 2.6080 -6.5380 25.7180 0
M  V30 163 C 2.7520 -5.1540 25.4760 0
M  V30 164 H 1.4100 10.0640 23.9440 0
M  V30 165 C 6.8030 4.2640 20.9700 0
M  V30 166 C 7.1710 7.0450 20.7890 0
M  V30 167 C 4.9100 5.3560 27.0140 0
M  V30 168 C 2.3820 4.2130 26.4230 0
M  V30 169 H -9.4200 -3.8110 23.9440 0
M  V30 170 C -7.0940 3.7600 20.9700 0
M  V30 171 C -9.6870 2.6880 20.7890 0
M  V30 172 C -7.0930 1.5740 27.0140 0
M  V30 173 C -4.8400 -0.0430 26.4230 0
M  V30 174 H 8.0100 -6.2530 23.9440 0
M  V30 175 C 0.2910 -8.0240 20.9700 0
M  V30 176 C 2.5160 -9.7330 20.7890 0
M  V30 177 C 2.1830 -6.9300 27.0140 0
M  V30 178 C 2.4580 -4.1700 26.4230 0
M  V30 179 C 7.8920 4.7730 20.2100 0
M  V30 180 C 6.8090 2.8390 21.1730 0
M  V30 181 H 7.3420 7.9810 20.7870 0
M  V30 182 C 8.0340 6.1680 20.1100 0
M  V30 183 C 4.2410 4.6190 27.9650 0
M  V30 184 H 5.7470 5.7510 27.2310 0
M  V30 185 C 2.9640 4.0620 27.7180 0
M  V30 186 C 1.0570 3.7080 26.2010 0
M  V30 187 C -8.0790 4.4480 20.2100 0
M  V30 188 C -5.8630 4.4770 21.1730 0
M  V30 189 H -10.5820 2.3680 20.7870 0
M  V30 190 C -9.3590 3.8740 20.1100 0
M  V30 191 C -6.1210 1.3630 27.9650 0
M  V30 192 H -7.8540 2.1010 27.2310 0
M  V30 193 C -4.9990 0.5360 27.7180 0
M  V30 194 C -3.7390 -0.9390 26.2010 0
M  V30 195 C 0.1880 -9.2210 20.2100 0
M  V30 196 C -0.9450 -7.3160 21.1730 0
M  V30 197 H 3.2400 -10.3490 20.7870 0
M  V30 198 C 1.3250 -10.0420 20.1100 0
M  V30 199 C 1.8800 -5.9820 27.9650 0
M  V30 200 H 2.1070 -7.8520 27.2310 0
M  V30 201 C 2.0350 -4.5980 27.7180 0
M  V30 202 C 2.6830 -2.7690 26.2010 0
M  V30 203 H 8.5040 4.1880 19.7730 0
M  V30 204 O 7.5420 2.0520 20.4760 0
M  V30 205 N 5.9440 2.3340 22.0510 0
M  V30 206 H 8.7310 6.5260 19.5770 0
M  V30 207 H 4.6490 4.4820 28.8180 0
M  V30 208 H 2.5010 3.5920 28.4090 0
M  V30 209 O 0.4580 3.0890 27.1170 0
M  V30 210 N 0.4830 3.9150 25.0330 0
M  V30 211 H -7.8790 5.2710 19.7730 0
M  V30 212 O -5.5490 5.5060 20.4760 0
M  V30 213 N -4.9930 3.9800 22.0510 0
M  V30 214 H -10.0170 4.2980 19.5770 0
M  V30 215 H -6.2060 1.7850 28.8180 0
M  V30 216 H -4.3620 0.3700 28.4090 0
M  V30 217 O -2.9040 -1.1480 27.1170 0
M  V30 218 N -3.6320 -1.5400 25.0330 0
M  V30 219 H -0.6250 -9.4590 19.7730 0
M  V30 220 O -1.9940 -7.5580 20.4760 0
M  V30 221 N -0.9500 -6.3140 22.0510 0
M  V30 222 H 1.2860 -10.8240 19.5770 0
M  V30 223 H 1.5570 -6.2670 28.8180 0
M  V30 224 H 1.8600 -3.9620 28.4090 0
M  V30 225 O 2.4460 -1.9410 27.1170 0
M  V30 226 N 3.1500 -2.3760 25.0330 0
M  V30 227 H 5.3970 2.9240 22.4060 0
M  V30 228 C 5.7510 0.9710 22.5210 0
M  V30 229 C -0.7960 3.4370 24.5490 0
M  V30 230 H 0.9390 4.4140 24.4670 0
M  V30 231 H -5.2310 3.2110 22.4060 0
M  V30 232 C -3.7160 4.4950 22.5210 0
M  V30 233 C -2.5780 -2.4080 24.5490 0
M  V30 234 H -4.2920 -1.3940 24.4670 0
M  V30 235 H -0.1660 -6.1360 22.4060 0
M  V30 236 C -2.0340 -5.4660 22.5210 0
M  V30 237 C 3.3750 -1.0290 24.5490 0
M  V30 238 H 3.3530 -3.0200 24.4670 0
M  V30 239 C 6.8110 0.0520 22.3340 0
M  V30 240 C 4.6020 0.6350 23.2420 0
M  V30 241 C -1.6480 4.2010 23.7470 0
M  V30 242 C -1.1260 2.0900 24.7860 0
M  V30 243 C -3.4510 5.8720 22.3340 0
M  V30 244 C -2.8510 3.6680 23.2420 0
M  V30 245 C -2.8140 -3.5270 23.7470 0
M  V30 246 C -1.2480 -2.0200 24.7860 0
M  V30 247 C -3.3600 -5.9240 22.3340 0
M  V30 248 C -1.7510 -4.3030 23.2420 0
M  V30 249 C 4.4620 -0.6730 23.7470 0
M  V30 250 C 2.3730 -0.0700 24.7860 0
M  V30 251 H 7.6140 0.3070 21.8990 0
M  V30 252 C 6.6270 -1.2510 22.8280 0
M  V30 253 C 3.6120 1.6070 23.5120 0
M  V30 254 C -1.3650 5.5670 23.5510 0
M  V30 255 C -2.3130 1.5540 24.2540 0
M  V30 256 H -0.5470 1.5470 25.3010 0
M  V30 257 H -4.0730 6.4410 21.8990 0
M  V30 258 C -2.2300 6.3650 22.8280 0
M  V30 259 C -3.1970 2.3250 23.5120 0
M  V30 260 C -4.1390 -3.9660 23.5510 0
M  V30 261 C -0.1900 -2.7800 24.2540 0
M  V30 262 H -1.0660 -1.2470 25.3010 0
M  V30 263 H -3.5410 -6.7480 21.8990 0
M  V30 264 C -4.3970 -5.1140 22.8280 0
M  V30 265 C -0.4150 -3.9320 23.5120 0
M  V30 266 C 5.5040 -1.6010 23.5510 0
M  V30 267 C 2.5020 1.2260 24.2540 0
M  V30 268 H 1.6130 -0.3000 25.3010 0
M  V30 269 H 7.2920 -1.9080 22.6680 0
M  V30 270 H 3.7040 2.4980 23.1910 0
M  V30 271 H -0.5750 5.9430 23.9270 0
M  V30 272 H -2.5140 0.6350 24.4020 0
M  V30 273 H -1.9940 7.2690 22.6680 0
M  V30 274 H -4.0160 1.9590 23.1910 0
M  V30 275 H -4.8590 -3.4690 23.9270 0
M  V30 276 H 0.7070 -2.4950 24.4020 0
M  V30 277 H -5.2990 -5.3610 22.6680 0
M  V30 278 H 0.3120 -4.4570 23.1910 0
M  V30 279 H 5.4340 -2.4730 23.9270 0
M  V30 280 H 1.8070 1.8590 24.4020 0
M  V30 END ATOM
M  V30 BEGIN BOND
M  V30 1 1   1   7
M  V30 2 1   1   6
M  V30 3 1   1   5
M  V30 4 1   1   2
M  V30 5 1   1   4
M  V30 6 1   1   3
M  V30 7 1   2   8
M  V30 8 1   3   9
M  V30 9 1   4  10
M  V30 10 1   5  11
M  V30 11 1   6  12
M  V30 12 1   7  13
M  V30 13 1   8  11
M  V30 14 1   8  14
M  V30 15 1   9  12
M  V30 16 1   9  15
M  V30 17 1  10  13
M  V30 18 1  10  16
M  V30 19 1  11  17
M  V30 20 1  12  18
M  V30 21 1  13  19
M  V30 22 1  14  20
M  V30 23 1  14  21
M  V30 24 1  15  22
M  V30 25 1  15  23
M  V30 26 1  16  24
M  V30 27 1  16  25
M  V30 28 1  17  26
M  V30 29 1  17  27
M  V30 30 1  18  28
M  V30 31 1  18  29
M  V30 32 1  19  30
M  V30 33 1  19  31
M  V30 34 1  20  27
M  V30 35 1  20  32
M  V30 36 1  21  33
M  V30 37 1  21  34
M  V30 38 1  22  29
M  V30 39 1  22  35
M  V30 40 1  23  36
M  V30 41 1  23  37
M  V30 42 1  24  31
M  V30 43 1  24  38
M  V30 44 1  25  39
M  V30 45 1  25  40
M  V30 46 1  27  41
M  V30 47 1  29  42
M  V30 48 1  31  43
M  V30 49 1  34  44
M  V30 50 1  34  45
M  V30 51 1  37  46
M  V30 52 1  37  47
M  V30 53 1  40  48
M  V30 54 1  40  49
M  V30 55 1  45  51
M  V30 56 1  45  50
M  V30 57 1  47  53
M  V30 58 1  47  52
M  V30 59 1  49  55
M  V30 60 1  49  54
M  V30 61 1  50  56
M  V30 62 1  50  57
M  V30 63 1  51  59
M  V30 64 1  51  58
M  V30 65 1  52  60
M  V30 66 1  52  61
M  V30 67 1  53  63
M  V30 68 1  53  62
M  V30 69 1  54  64
M  V30 70 1  54  65
M  V30 71 1  55  67
M  V30 72 1  55  66
M  V30 73 1  57  69
M  V30 74 1  57  68
M  V30 75 1  58  70
M  V30 76 1  58  69
M  V30 77 1  59  71
M  V30 78 1  59  72
M  V30 79 1  61  74
M  V30 80 1  61  73
M  V30 81 1  62  75
M  V30 82 1  62  74
M  V30 83 1  63  76
M  V30 84 1  63  77
M  V30 85 1  65  79
M  V30 86 1  65  78
M  V30 87 1  66  80
M  V30 88 1  66  79
M  V30 89 1  67  81
M  V30 90 1  67  82
M  V30 91 1  69  83
M  V30 92 1  70  85
M  V30 93 1  70  84
M  V30 94 1  72  86
M  V30 95 1  72  85
M  V30 96 1  74  87
M  V30 97 1  75  89
M  V30 98 1  75  88
M  V30 99 1  77  90
M  V30 100 1  77  89
M  V30 101 1  79  91
M  V30 102 1  80  93
M  V30 103 1  80  92
M  V30 104 1  82  94
M  V30 105 1  82  93
M  V30 106 1  84  96
M  V30 107 1  84  95
M  V30 108 1  85  97
M  V30 109 1  88  99
M  V30 110 1  88  98
M  V30 111 1  89 100
M  V30 112 1  92 102
M  V30 113 1  92 101
M  V30 114 1  93 103
M  V30 115 1  96 104
M  V30 116 1  96 105
M  V30 117 1  99 106
M  V30 118 1  99 107
M  V30 119 1 102 108
M  V30 120 1 102 109
M  V30 121 1 105 110
M  V30 122 1 105 111
M  V30 123 1 107 112
M  V30 124 1 107 113
M  V30 125 1 109 114
M  V30 126 1 109 115
M  V30 127 1 110 116
M  V30 128 1 110 117
M  V30 129 1 111 119
M  V30 130 1 111 120
M  V30 131 1 112 121
M  V30 132 1 112 122
M  V30 133 1 113 124
M  V30 134 1 113 125
M  V30 135 1 114 126
M  V30 136 1 114 127
M  V30 137 1 115 129
M  V30 138 1 115 130
M  V30 139 1 117 131
M  V30 140 1 117 132
M  V30 141 1 118 119
M  V30 142 1 118 135
M  V30 143 1 118 134
M  V30 144 1 118 133
M  V30 145 1 118 137
M  V30 146 1 118 136
M  V30 147 1 120 132
M  V30 148 1 120 133
M  V30 149 1 122 142
M  V30 150 1 122 143
M  V30 151 1 123 124
M  V30 152 1 123 146
M  V30 153 1 123 145
M  V30 154 1 123 144
M  V30 155 1 123 148
M  V30 156 1 123 147
M  V30 157 1 125 143
M  V30 158 1 125 144
M  V30 159 1 127 153
M  V30 160 1 127 154
M  V30 161 1 128 129
M  V30 162 1 128 157
M  V30 163 1 128 156
M  V30 164 1 128 155
M  V30 165 1 128 159
M  V30 166 1 128 158
M  V30 167 1 130 154
M  V30 168 1 130 155
M  V30 169 1 132 164
M  V30 170 1 134 138
M  V30 171 1 135 139
M  V30 172 1 136 140
M  V30 173 1 137 141
M  V30 174 1 138 165
M  V30 175 1 138 139
M  V30 176 1 139 166
M  V30 177 1 140 141
M  V30 178 1 140 167
M  V30 179 1 141 168
M  V30 180 1 143 169
M  V30 181 1 145 149
M  V30 182 1 146 150
M  V30 183 1 147 151
M  V30 184 1 148 152
M  V30 185 1 149 170
M  V30 186 1 149 150
M  V30 187 1 150 171
M  V30 188 1 151 152
M  V30 189 1 151 172
M  V30 190 1 152 173
M  V30 191 1 154 174
M  V30 192 1 156 160
M  V30 193 1 157 161
M  V30 194 1 158 162
M  V30 195 1 159 163
M  V30 196 1 160 175
M  V30 197 1 160 161
M  V30 198 1 161 176
M  V30 199 1 162 163
M  V30 200 1 162 177
M  V30 201 1 163 178
M  V30 202 1 165 179
M  V30 203 1 165 180
M  V30 204 1 166 182
M  V30 205 1 166 181
M  V30 206 1 167 184
M  V30 207 1 167 183
M  V30 208 1 168 186
M  V30 209 1 168 185
M  V30 210 1 170 187
M  V30 211 1 170 188
M  V30 212 1 171 190
M  V30 213 1 171 189
M  V30 214 1 172 192
M  V30 215 1 172 191
M  V30 216 1 173 194
M  V30 217 1 173 193
M  V30 218 1 175 195
M  V30 219 1 175 196
M  V30 220 1 176 198
M  V30 221 1 176 197
M  V30 222 1 177 200
M  V30 223 1 177 199
M  V30 224 1 178 202
M  V30 225 1 178 201
M  V30 226 1 179 203
M  V30 227 1 179 182
M  V30 228 1 180 204
M  V30 229 1 180 205
M  V30 230 1 182 206
M  V30 231 1 183 185
M  V30 232 1 183 207
M  V30 233 1 185 208
M  V30 234 1 186 210
M  V30 235 1 186 209
M  V30 236 1 187 211
M  V30 237 1 187 190
M  V30 238 1 188 212
M  V30 239 1 188 213
M  V30 240 1 190 214
M  V30 241 1 191 193
M  V30 242 1 191 215
M  V30 243 1 193 216
M  V30 244 1 194 218
M  V30 245 1 194 217
M  V30 246 1 195 219
M  V30 247 1 195 198
M  V30 248 1 196 220
M  V30 249 1 196 221
M  V30 250 1 198 222
M  V30 251 1 199 201
M  V30 252 1 199 223
M  V30 253 1 201 224
M  V30 254 1 202 226
M  V30 255 1 202 225
M  V30 256 1 205 227
M  V30 257 1 205 228
M  V30 258 1 210 230
M  V30 259 1 210 229
M  V30 260 1 213 231
M  V30 261 1 213 232
M  V30 262 1 218 234
M  V30 263 1 218 233
M  V30 264 1 221 235
M  V30 265 1 221 236
M  V30 266 1 226 238
M  V30 267 1 226 237
M  V30 268 1 228 239
M  V30 269 1 228 240
M  V30 270 1 229 241
M  V30 271 1 229 242
M  V30 272 1 232 243
M  V30 273 1 232 244
M  V30 274 1 233 245
M  V30 275 1 233 246
M  V30 276 1 236 247
M  V30 277 1 236 248
M  V30 278 1 237 249
M  V30 279 1 237 250
M  V30 280 1 239 251
M  V30 281 1 239 252
M  V30 282 1 240 253
M  V30 283 1 240 249
M  V30 284 1 241 244
M  V30 285 1 241 254
M  V30 286 1 242 255
M  V30 287 1 242 256
M  V30 288 1 243 257
M  V30 289 1 243 258
M  V30 290 1 244 259
M  V30 291 1 245 248
M  V30 292 1 245 260
M  V30 293 1 246 261
M  V30 294 1 246 262
M  V30 295 1 247 263
M  V30 296 1 247 264
M  V30 297 1 248 265
M  V30 298 1 249 266
M  V30 299 1 250 267
M  V30 300 1 250 268
M  V30 301 1 252 269
M  V30 302 1 252 266
M  V30 303 1 253 270
M  V30 304 1 253 267
M  V30 305 1 254 258
M  V30 306 1 254 271
M  V30 307 1 255 259
M  V30 308 1 255 272
M  V30 309 1 258 273
M  V30 310 1 259 274
M  V30 311 1 260 264
M  V30 312 1 260 275
M  V30 313 1 261 265
M  V30 314 1 261 276
M  V30 315 1 264 277
M  V30 316 1 265 278
M  V30 317 1 266 279
M  V30 318 1 267 280
M  V30 319 1 M   END
M  V30 END BOND
M  V30 END CTAB

