     RDKit          3D

  0  0  0  0  0  0  0  0  0  0999 V3000
M  V30 BEGIN CTAB
M  V30 COUNTS 281 318 0 0 0
M  V30 BEGIN ATOM
M  V30 1 Fe -20.3780 -27.8980 -17.7540 0
M  V30 2 Fe -16.1010 -16.1010 -16.1010 0
M  V30 3 O -21.3950 -26.5040 -16.6960 0
M  V30 4 O -20.1800 -28.6590 -15.9050 0
M  V30 5 O -23.1250 -23.8680 -13.9380 0
M  V30 6 O -26.7880 -23.6320 -21.8840 0
M  V30 7 O -29.2230 -18.1910 -21.8540 0
M  V30 8 O -27.1730 -19.5550 -20.9920 0
M  V30 9 O -18.6930 -26.7750 -17.9330 0
M  V30 10 O -19.1440 -29.3060 -18.4360 0
M  V30 11 O -14.9650 -25.0180 -19.0040 0
M  V30 12 O -19.9830 -19.9040 -13.1250 0
M  V30 13 O -16.6870 -15.0960 -14.4980 0
M  V30 14 O -17.3820 -17.4390 -15.3800 0
M  V30 15 N -23.2000 -24.6770 -16.0540 0
M  V30 16 H -22.8590 -25.2930 -16.5780 0
M  V30 17 N -26.0140 -21.8710 -20.7080 0
M  V30 18 H -26.0800 -21.0100 -20.5380 0
M  V30 19 N -17.0060 -24.7340 -17.9770 0
M  V30 20 H -17.7970 -25.1100 -17.8890 0
M  V30 21 N -18.7110 -19.6640 -14.9780 0
M  V30 22 H -18.2080 -19.1090 -15.4420 0
M  V30 23 C -21.3900 -26.7310 -15.3890 0
M  V30 24 C -20.7130 -27.9030 -14.9520 0
M  V30 25 C -20.7080 -28.2300 -13.6280 0
M  V30 26 H -20.2800 -29.0300 -13.3390 0
M  V30 27 C -21.3120 -27.4130 -12.7100 0
M  V30 28 H -21.2850 -27.6580 -11.7880 0
M  V30 29 C -21.9230 -26.3070 -13.0600 0
M  V30 30 H -22.3210 -25.7650 -12.3870 0
M  V30 31 C -22.0060 -25.8960 -14.4280 0
M  V30 32 C -22.8060 -24.7120 -14.7990 0
M  V30 33 C -24.1000 -23.7810 -16.6650 0
M  V30 34 C -25.0970 -23.1600 -15.9310 0
M  V30 35 H -25.1400 -23.3000 -14.9920 0
M  V30 36 C -26.0410 -22.3300 -16.5340 0
M  V30 37 H -26.7270 -21.9190 -16.0230 0
M  V30 38 C -25.9620 -22.1070 -17.9110 0
M  V30 39 H -26.5740 -21.5080 -18.3220 0
M  V30 40 C -25.0140 -22.7410 -18.6720 0
M  V30 41 C -24.0430 -23.5450 -18.0380 0
M  V30 42 C -23.0160 -24.1520 -18.8200 0
M  V30 43 H -22.3170 -24.6510 -18.4050 0
M  V30 44 C -23.0600 -24.0080 -20.1660 0
M  V30 45 H -22.3780 -24.4280 -20.6780 0
M  V30 46 C -24.0610 -23.2610 -20.8700 0
M  V30 47 H -24.0740 -23.2080 -21.8190 0
M  V30 48 C -25.0140 -22.6230 -20.0750 0
M  V30 49 C -26.8490 -22.4260 -21.5560 0
M  V30 50 C -27.9510 -21.5610 -22.0900 0
M  V30 51 C -28.9210 -22.1160 -22.8850 0
M  V30 52 H -28.8470 -23.0340 -23.1250 0
M  V30 53 C -29.9570 -21.4210 -23.3260 0
M  V30 54 H -30.6080 -21.8400 -23.8770 0
M  V30 55 C -30.1180 -19.9960 -22.9770 0
M  V30 56 H -30.8790 -19.5060 -23.2740 0
M  V30 57 C -29.1740 -19.3930 -22.2380 0
M  V30 58 C -28.0290 -20.1930 -21.7750 0
M  V30 59 C -17.6660 -27.4310 -18.4750 0
M  V30 60 C -17.9330 -28.8600 -18.7110 0
M  V30 61 C -16.8930 -29.6380 -19.1570 0
M  V30 62 H -17.0200 -30.5690 -19.2790 0
M  V30 63 C -15.5990 -29.0480 -19.4500 0
M  V30 64 H -14.8950 -29.5900 -19.7910 0
M  V30 65 C -15.3890 -27.7150 -19.2350 0
M  V30 66 H -14.5410 -27.3260 -19.4150 0
M  V30 67 C -16.4160 -26.9450 -18.7680 0
M  V30 68 C -16.0450 -25.4640 -18.5890 0
M  V30 69 C -16.8530 -23.4530 -17.4780 0
M  V30 70 C -15.5950 -22.7670 -17.6100 0
M  V30 71 H -14.8650 -23.1560 -18.0770 0
M  V30 72 C -15.4770 -21.4210 -16.9850 0
M  V30 73 H -14.6460 -20.9620 -17.0460 0
M  V30 74 C -16.5300 -20.8050 -16.3110 0
M  V30 75 H -16.4290 -19.9440 -15.9220 0
M  V30 76 C -17.8060 -21.5340 -16.2280 0
M  V30 77 C -17.9770 -22.8150 -16.8230 0
M  V30 78 C -19.2090 -23.4360 -16.7490 0
M  V30 79 H -19.3140 -24.3010 -17.1240 0
M  V30 80 C -20.2710 -22.8370 -16.1580 0
M  V30 81 H -21.1100 -23.2870 -16.1320 0
M  V30 82 C -20.1400 -21.5610 -15.5770 0
M  V30 83 H -20.9090 -21.1320 -15.2140 0
M  V30 84 C -18.8950 -20.9050 -15.5250 0
M  V30 85 C -19.2000 -19.1830 -13.8160 0
M  V30 86 C -18.8030 -17.8980 -13.4090 0
M  V30 87 C -19.2440 -17.3820 -12.1640 0
M  V30 88 H -19.8300 -17.9020 -11.6220 0
M  V30 89 C -18.8460 -16.1580 -11.7350 0
M  V30 90 H -19.1480 -15.8390 -10.8920 0
M  V30 91 C -17.9990 -15.3540 -12.5130 0
M  V30 92 H -17.7360 -14.4980 -12.1940 0
M  V30 93 C -17.5480 -15.7870 -13.7110 0
M  V30 94 C -17.9550 -17.0760 -14.1740 0
M  V30 95 Fe -17.7540 -20.3780 -27.8980 0
M  V30 96 O -16.6960 -21.3950 -26.5040 0
M  V30 97 O -15.9050 -20.1800 -28.6590 0
M  V30 98 O -13.9380 -23.1250 -23.8680 0
M  V30 99 O -21.8840 -26.7880 -23.6320 0
M  V30 100 O -21.8540 -29.2230 -18.1910 0
M  V30 101 O -20.9920 -27.1730 -19.5550 0
M  V30 102 O -17.9330 -18.6930 -26.7750 0
M  V30 103 O -18.4360 -19.1440 -29.3060 0
M  V30 104 O -19.0040 -14.9650 -25.0180 0
M  V30 105 O -13.1250 -19.9830 -19.9040 0
M  V30 106 O -14.4980 -16.6870 -15.0960 0
M  V30 107 O -15.3800 -17.3820 -17.4390 0
M  V30 108 O -14.0690 -23.2430 -21.0060 0
M  V30 109 N -16.0540 -23.2000 -24.6770 0
M  V30 110 H -16.5780 -22.8590 -25.2930 0
M  V30 111 N -20.7080 -26.0140 -21.8710 0
M  V30 112 H -20.5380 -26.0800 -21.0100 0
M  V30 113 N -17.9770 -17.0060 -24.7340 0
M  V30 114 H -17.8890 -17.7970 -25.1100 0
M  V30 115 N -14.9780 -18.7110 -19.6640 0
M  V30 116 H -15.4420 -18.2080 -19.1090 0
M  V30 117 C -15.3890 -21.3900 -26.7310 0
M  V30 118 C -14.9520 -20.7130 -27.9030 0
M  V30 119 C -13.6280 -20.7080 -28.2300 0
M  V30 120 H -13.3390 -20.2800 -29.0300 0
M  V30 121 C -12.7100 -21.3120 -27.4130 0
M  V30 122 H -11.7880 -21.2850 -27.6580 0
M  V30 123 C -13.0600 -21.9230 -26.3070 0
M  V30 124 H -12.3870 -22.3210 -25.7650 0
M  V30 125 C -14.4280 -22.0060 -25.8960 0
M  V30 126 C -14.7990 -22.8060 -24.7120 0
M  V30 127 C -16.6650 -24.1000 -23.7810 0
M  V30 128 C -15.9310 -25.0970 -23.1600 0
M  V30 129 H -14.9920 -25.1400 -23.3000 0
M  V30 130 C -16.5340 -26.0410 -22.3300 0
M  V30 131 H -16.0230 -26.7270 -21.9190 0
M  V30 132 C -17.9110 -25.9620 -22.1070 0
M  V30 133 H -18.3220 -26.5740 -21.5080 0
M  V30 134 C -18.6720 -25.0140 -22.7410 0
M  V30 135 C -18.0380 -24.0430 -23.5450 0
M  V30 136 C -18.8200 -23.0160 -24.1520 0
M  V30 137 H -18.4050 -22.3170 -24.6510 0
M  V30 138 C -20.1660 -23.0600 -24.0080 0
M  V30 139 H -20.6780 -22.3780 -24.4280 0
M  V30 140 C -20.8700 -24.0610 -23.2610 0
M  V30 141 H -21.8190 -24.0740 -23.2080 0
M  V30 142 C -20.0750 -25.0140 -22.6230 0
M  V30 143 C -21.5560 -26.8490 -22.4260 0
M  V30 144 C -22.0900 -27.9510 -21.5610 0
M  V30 145 C -22.8850 -28.9210 -22.1160 0
M  V30 146 H -23.1250 -28.8470 -23.0340 0
M  V30 147 C -23.3260 -29.9570 -21.4210 0
M  V30 148 H -23.8770 -30.6080 -21.8400 0
M  V30 149 C -22.9770 -30.1180 -19.9960 0
M  V30 150 H -23.2740 -30.8790 -19.5060 0
M  V30 151 C -22.2380 -29.1740 -19.3930 0
M  V30 152 C -21.7750 -28.0290 -20.1930 0
M  V30 153 C -18.4750 -17.6660 -27.4310 0
M  V30 154 C -18.7110 -17.9330 -28.8600 0
M  V30 155 C -19.1570 -16.8930 -29.6380 0
M  V30 156 H -19.2790 -17.0200 -30.5690 0
M  V30 157 C -19.4500 -15.5990 -29.0480 0
M  V30 158 H -19.7910 -14.8950 -29.5900 0
M  V30 159 C -19.2350 -15.3890 -27.7150 0
M  V30 160 H -19.4150 -14.5410 -27.3260 0
M  V30 161 C -18.7680 -16.4160 -26.9450 0
M  V30 162 C -18.5890 -16.0450 -25.4640 0
M  V30 163 C -17.4780 -16.8530 -23.4530 0
M  V30 164 C -17.6100 -15.5950 -22.7670 0
M  V30 165 H -18.0770 -14.8650 -23.1560 0
M  V30 166 C -16.9850 -15.4770 -21.4210 0
M  V30 167 H -17.0460 -14.6460 -20.9620 0
M  V30 168 C -16.3110 -16.5300 -20.8050 0
M  V30 169 H -15.9220 -16.4290 -19.9440 0
M  V30 170 C -16.2280 -17.8060 -21.5340 0
M  V30 171 C -16.8230 -17.9770 -22.8150 0
M  V30 172 C -16.7490 -19.2090 -23.4360 0
M  V30 173 H -17.1240 -19.3140 -24.3010 0
M  V30 174 C -16.1580 -20.2710 -22.8370 0
M  V30 175 H -16.1320 -21.1100 -23.2870 0
M  V30 176 C -15.5770 -20.1400 -21.5610 0
M  V30 177 H -15.2140 -20.9090 -21.1320 0
M  V30 178 C -15.5250 -18.8950 -20.9050 0
M  V30 179 C -13.8160 -19.2000 -19.1830 0
M  V30 180 C -13.4090 -18.8030 -17.8980 0
M  V30 181 C -12.1640 -19.2440 -17.3820 0
M  V30 182 H -11.6220 -19.8300 -17.9020 0
M  V30 183 C -11.7350 -18.8460 -16.1580 0
M  V30 184 H -10.8920 -19.1480 -15.8390 0
M  V30 185 C -12.5130 -17.9990 -15.3540 0
M  V30 186 H -12.1940 -17.7360 -14.4980 0
M  V30 187 C -13.7110 -17.5480 -15.7870 0
M  V30 188 C -14.1740 -17.9550 -17.0760 0
M  V30 189 Fe -27.8980 -17.7540 -20.3780 0
M  V30 190 O -26.5040 -16.6960 -21.3950 0
M  V30 191 O -28.6590 -15.9050 -20.1800 0
M  V30 192 O -23.8680 -13.9380 -23.1250 0
M  V30 193 O -23.6320 -21.8840 -26.7880 0
M  V30 194 O -18.1910 -21.8540 -29.2230 0
M  V30 195 O -19.5550 -20.9920 -27.1730 0
M  V30 196 O -26.7750 -17.9330 -18.6930 0
M  V30 197 O -29.3060 -18.4360 -19.1440 0
M  V30 198 O -25.0180 -19.0040 -14.9650 0
M  V30 199 O -19.9040 -13.1250 -19.9830 0
M  V30 200 O -15.0960 -14.4980 -16.6870 0
M  V30 201 O -17.4390 -15.3800 -17.3820 0
M  V30 202 N -24.6770 -16.0540 -23.2000 0
M  V30 203 H -25.2930 -16.5780 -22.8590 0
M  V30 204 N -21.8710 -20.7080 -26.0140 0
M  V30 205 H -21.0100 -20.5380 -26.0800 0
M  V30 206 N -24.7340 -17.9770 -17.0060 0
M  V30 207 H -25.1100 -17.8890 -17.7970 0
M  V30 208 N -19.6640 -14.9780 -18.7110 0
M  V30 209 H -19.1090 -15.4420 -18.2080 0
M  V30 210 C -26.7310 -15.3890 -21.3900 0
M  V30 211 C -27.9030 -14.9520 -20.7130 0
M  V30 212 C -28.2300 -13.6280 -20.7080 0
M  V30 213 H -29.0300 -13.3390 -20.2800 0
M  V30 214 C -27.4130 -12.7100 -21.3120 0
M  V30 215 H -27.6580 -11.7880 -21.2850 0
M  V30 216 C -26.3070 -13.0600 -21.9230 0
M  V30 217 H -25.7650 -12.3870 -22.3210 0
M  V30 218 C -25.8960 -14.4280 -22.0060 0
M  V30 219 C -24.7120 -14.7990 -22.8060 0
M  V30 220 C -23.7810 -16.6650 -24.1000 0
M  V30 221 C -23.1600 -15.9310 -25.0970 0
M  V30 222 H -23.3000 -14.9920 -25.1400 0
M  V30 223 C -22.3300 -16.5340 -26.0410 0
M  V30 224 H -21.9190 -16.0230 -26.7270 0
M  V30 225 C -22.1070 -17.9110 -25.9620 0
M  V30 226 H -21.5080 -18.3220 -26.5740 0
M  V30 227 C -22.7410 -18.6720 -25.0140 0
M  V30 228 C -23.5450 -18.0380 -24.0430 0
M  V30 229 C -24.1520 -18.8200 -23.0160 0
M  V30 230 H -24.6510 -18.4050 -22.3170 0
M  V30 231 C -24.0080 -20.1660 -23.0600 0
M  V30 232 H -24.4280 -20.6780 -22.3780 0
M  V30 233 C -23.2610 -20.8700 -24.0610 0
M  V30 234 H -23.2080 -21.8190 -24.0740 0
M  V30 235 C -22.6230 -20.0750 -25.0140 0
M  V30 236 C -22.4260 -21.5560 -26.8490 0
M  V30 237 C -21.5610 -22.0900 -27.9510 0
M  V30 238 C -22.1160 -22.8850 -28.9210 0
M  V30 239 H -23.0340 -23.1250 -28.8470 0
M  V30 240 C -21.4210 -23.3260 -29.9570 0
M  V30 241 H -21.8400 -23.8770 -30.6080 0
M  V30 242 C -19.9960 -22.9770 -30.1180 0
M  V30 243 H -19.5060 -23.2740 -30.8790 0
M  V30 244 C -19.3930 -22.2380 -29.1740 0
M  V30 245 C -20.1930 -21.7750 -28.0290 0
M  V30 246 C -27.4310 -18.4750 -17.6660 0
M  V30 247 C -28.8600 -18.7110 -17.9330 0
M  V30 248 C -29.6380 -19.1570 -16.8930 0
M  V30 249 H -30.5690 -19.2790 -17.0200 0
M  V30 250 C -29.0480 -19.4500 -15.5990 0
M  V30 251 H -29.5900 -19.7910 -14.8950 0
M  V30 252 C -27.7150 -19.2350 -15.3890 0
M  V30 253 H -27.3260 -19.4150 -14.5410 0
M  V30 254 C -26.9450 -18.7680 -16.4160 0
M  V30 255 C -25.4640 -18.5890 -16.0450 0
M  V30 256 C -23.4530 -17.4780 -16.8530 0
M  V30 257 C -22.7670 -17.6100 -15.5950 0
M  V30 258 H -23.1560 -18.0770 -14.8650 0
M  V30 259 C -21.4210 -16.9850 -15.4770 0
M  V30 260 H -20.9620 -17.0460 -14.6460 0
M  V30 261 C -20.8050 -16.3110 -16.5300 0
M  V30 262 H -19.9440 -15.9220 -16.4290 0
M  V30 263 C -21.5340 -16.2280 -17.8060 0
M  V30 264 C -22.8150 -16.8230 -17.9770 0
M  V30 265 C -23.4360 -16.7490 -19.2090 0
M  V30 266 H -24.3010 -17.1240 -19.3140 0
M  V30 267 C -22.8370 -16.1580 -20.2710 0
M  V30 268 H -23.2870 -16.1320 -21.1100 0
M  V30 269 C -21.5610 -15.5770 -20.1400 0
M  V30 270 H -21.1320 -15.2140 -20.9090 0
M  V30 271 C -20.9050 -15.5250 -18.8950 0
M  V30 272 C -19.1830 -13.8160 -19.2000 0
M  V30 273 C -17.8980 -13.4090 -18.8030 0
M  V30 274 C -17.3820 -12.1640 -19.2440 0
M  V30 275 H -17.9020 -11.6220 -19.8300 0
M  V30 276 C -16.1580 -11.7350 -18.8460 0
M  V30 277 H -15.8390 -10.8920 -19.1480 0
M  V30 278 C -15.3540 -12.5130 -17.9990 0
M  V30 279 H -14.4980 -12.1940 -17.7360 0
M  V30 280 C -15.7870 -13.7110 -17.5480 0
M  V30 281 C -17.0760 -14.1740 -17.9550 0
M  V30 END ATOM
M  V30 BEGIN BOND
M  V30 1 1   1 101
M  V30 2 1   1  10
M  V30 3 1   1 100
M  V30 4 1   1   9
M  V30 5 1   1   3
M  V30 6 1   1   4
M  V30 7 1   2 107
M  V30 8 1   2 201
M  V30 9 1   2 200
M  V30 10 1   2  14
M  V30 11 1   2 106
M  V30 12 1   2  13
M  V30 13 1   3  23
M  V30 14 1   4  24
M  V30 15 1   5  32
M  V30 16 1   6  49
M  V30 17 1   7  57
M  V30 18 1   7 189
M  V30 19 1   8  58
M  V30 20 1   8 189
M  V30 21 1   9  59
M  V30 22 1  10  60
M  V30 23 1  11  68
M  V30 24 1  12  85
M  V30 25 1  13  93
M  V30 26 1  14  94
M  V30 27 1  15  33
M  V30 28 1  15  16
M  V30 29 1  15  32
M  V30 30 1  17  49
M  V30 31 1  17  18
M  V30 32 1  17  48
M  V30 33 1  19  68
M  V30 34 1  19  20
M  V30 35 1  19  69
M  V30 36 1  21  84
M  V30 37 1  21  22
M  V30 38 1  21  85
M  V30 39 1  23  24
M  V30 40 1  23  31
M  V30 41 1  24  25
M  V30 42 1  25  26
M  V30 43 1  25  27
M  V30 44 1  27  29
M  V30 45 1  27  28
M  V30 46 1  29  31
M  V30 47 1  29  30
M  V30 48 1  31  32
M  V30 49 1  33  41
M  V30 50 1  33  34
M  V30 51 1  34  36
M  V30 52 1  34  35
M  V30 53 1  36  38
M  V30 54 1  36  37
M  V30 55 1  38  40
M  V30 56 1  38  39
M  V30 57 1  40  48
M  V30 58 1  40  41
M  V30 59 1  41  42
M  V30 60 1  42  44
M  V30 61 1  42  43
M  V30 62 1  44  46
M  V30 63 1  44  45
M  V30 64 1  46  47
M  V30 65 1  46  48
M  V30 66 1  49  50
M  V30 67 1  50  51
M  V30 68 1  50  58
M  V30 69 1  51  53
M  V30 70 1  51  52
M  V30 71 1  53  54
M  V30 72 1  53  55
M  V30 73 1  55  56
M  V30 74 1  55  57
M  V30 75 1  57  58
M  V30 76 1  59  67
M  V30 77 1  59  60
M  V30 78 1  60  61
M  V30 79 1  61  63
M  V30 80 1  61  62
M  V30 81 1  63  64
M  V30 82 1  63  65
M  V30 83 1  65  66
M  V30 84 1  65  67
M  V30 85 1  67  68
M  V30 86 1  69  70
M  V30 87 1  69  77
M  V30 88 1  70  71
M  V30 89 1  70  72
M  V30 90 1  72  73
M  V30 91 1  72  74
M  V30 92 1  74  76
M  V30 93 1  74  75
M  V30 94 1  76  77
M  V30 95 1  76  84
M  V30 96 1  77  78
M  V30 97 1  78  79
M  V30 98 1  78  80
M  V30 99 1  80  81
M  V30 100 1  80  82
M  V30 101 1  82  84
M  V30 102 1  82  83
M  V30 103 1  85  86
M  V30 104 1  86  94
M  V30 105 1  86  87
M  V30 106 1  87  89
M  V30 107 1  87  88
M  V30 108 1  89  91
M  V30 109 1  89  90
M  V30 110 1  91  93
M  V30 111 1  91  92
M  V30 112 1  93  94
M  V30 113 1  95 103
M  V30 114 1  95 194
M  V30 115 1  95  97
M  V30 116 1  95 195
M  V30 117 1  95 102
M  V30 118 1  95  96
M  V30 119 1  96 117
M  V30 120 1  97 118
M  V30 121 1  98 126
M  V30 122 1  99 143
M  V30 123 1 100 151
M  V30 124 1 101 152
M  V30 125 1 102 153
M  V30 126 1 103 154
M  V30 127 1 104 162
M  V30 128 1 105 179
M  V30 129 1 106 187
M  V30 130 1 107 188
M  V30 131 1 109 110
M  V30 132 1 109 126
M  V30 133 1 109 127
M  V30 134 1 111 142
M  V30 135 1 111 143
M  V30 136 1 111 112
M  V30 137 1 113 162
M  V30 138 1 113 114
M  V30 139 1 113 163
M  V30 140 1 115 178
M  V30 141 1 115 179
M  V30 142 1 115 116
M  V30 143 1 117 118
M  V30 144 1 117 125
M  V30 145 1 118 119
M  V30 146 1 119 120
M  V30 147 1 119 121
M  V30 148 1 121 122
M  V30 149 1 121 123
M  V30 150 1 123 125
M  V30 151 1 123 124
M  V30 152 1 125 126
M  V30 153 1 127 135
M  V30 154 1 127 128
M  V30 155 1 128 129
M  V30 156 1 128 130
M  V30 157 1 130 132
M  V30 158 1 130 131
M  V30 159 1 132 134
M  V30 160 1 132 133
M  V30 161 1 134 135
M  V30 162 1 134 142
M  V30 163 1 135 136
M  V30 164 1 136 137
M  V30 165 1 136 138
M  V30 166 1 138 139
M  V30 167 1 138 140
M  V30 168 1 140 141
M  V30 169 1 140 142
M  V30 170 1 143 144
M  V30 171 1 144 145
M  V30 172 1 144 152
M  V30 173 1 145 146
M  V30 174 1 145 147
M  V30 175 1 147 148
M  V30 176 1 147 149
M  V30 177 1 149 150
M  V30 178 1 149 151
M  V30 179 1 151 152
M  V30 180 1 153 154
M  V30 181 1 153 161
M  V30 182 1 154 155
M  V30 183 1 155 156
M  V30 184 1 155 157
M  V30 185 1 157 158
M  V30 186 1 157 159
M  V30 187 1 159 160
M  V30 188 1 159 161
M  V30 189 1 161 162
M  V30 190 1 163 171
M  V30 191 1 163 164
M  V30 192 1 164 165
M  V30 193 1 164 166
M  V30 194 1 166 167
M  V30 195 1 166 168
M  V30 196 1 168 170
M  V30 197 1 168 169
M  V30 198 1 170 171
M  V30 199 1 170 178
M  V30 200 1 171 172
M  V30 201 1 172 173
M  V30 202 1 172 174
M  V30 203 1 174 175
M  V30 204 1 174 176
M  V30 205 1 176 177
M  V30 206 1 176 178
M  V30 207 1 179 180
M  V30 208 1 180 181
M  V30 209 1 180 188
M  V30 210 1 181 182
M  V30 211 1 181 183
M  V30 212 1 183 184
M  V30 213 1 183 185
M  V30 214 1 185 187
M  V30 215 1 185 186
M  V30 216 1 187 188
M  V30 217 1 189 190
M  V30 218 1 189 191
M  V30 219 1 189 197
M  V30 220 1 189 196
M  V30 221 1 190 210
M  V30 222 1 191 211
M  V30 223 1 192 219
M  V30 224 1 193 236
M  V30 225 1 194 244
M  V30 226 1 195 245
M  V30 227 1 196 246
M  V30 228 1 197 247
M  V30 229 1 198 255
M  V30 230 1 199 272
M  V30 231 1 200 280
M  V30 232 1 201 281
M  V30 233 1 202 220
M  V30 234 1 202 203
M  V30 235 1 202 219
M  V30 236 1 204 236
M  V30 237 1 204 205
M  V30 238 1 204 235
M  V30 239 1 206 207
M  V30 240 1 206 256
M  V30 241 1 206 255
M  V30 242 1 208 272
M  V30 243 1 208 271
M  V30 244 1 208 209
M  V30 245 1 210 218
M  V30 246 1 210 211
M  V30 247 1 211 212
M  V30 248 1 212 214
M  V30 249 1 212 213
M  V30 250 1 214 216
M  V30 251 1 214 215
M  V30 252 1 216 217
M  V30 253 1 216 218
M  V30 254 1 218 219
M  V30 255 1 220 221
M  V30 256 1 220 228
M  V30 257 1 221 223
M  V30 258 1 221 222
M  V30 259 1 223 224
M  V30 260 1 223 225
M  V30 261 1 225 226
M  V30 262 1 225 227
M  V30 263 1 227 235
M  V30 264 1 227 228
M  V30 265 1 228 229
M  V30 266 1 229 231
M  V30 267 1 229 230
M  V30 268 1 231 233
M  V30 269 1 231 232
M  V30 270 1 233 235
M  V30 271 1 233 234
M  V30 272 1 236 237
M  V30 273 1 237 238
M  V30 274 1 237 245
M  V30 275 1 238 240
M  V30 276 1 238 239
M  V30 277 1 240 241
M  V30 278 1 240 242
M  V30 279 1 242 243
M  V30 280 1 242 244
M  V30 281 1 244 245
M  V30 282 1 246 247
M  V30 283 1 246 254
M  V30 284 1 247 248
M  V30 285 1 248 249
M  V30 286 1 248 250
M  V30 287 1 250 252
M  V30 288 1 250 251
M  V30 289 1 252 254
M  V30 290 1 252 253
M  V30 291 1 254 255
M  V30 292 1 256 264
M  V30 293 1 256 257
M  V30 294 1 257 259
M  V30 295 1 257 258
M  V30 296 1 259 261
M  V30 297 1 259 260
M  V30 298 1 261 263
M  V30 299 1 261 262
M  V30 300 1 263 271
M  V30 301 1 263 264
M  V30 302 1 264 265
M  V30 303 1 265 267
M  V30 304 1 265 266
M  V30 305 1 267 268
M  V30 306 1 267 269
M  V30 307 1 269 270
M  V30 308 1 269 271
M  V30 309 1 272 273
M  V30 310 1 273 274
M  V30 311 1 273 281
M  V30 312 1 274 275
M  V30 313 1 274 276
M  V30 314 1 276 277
M  V30 315 1 276 278
M  V30 316 1 278 279
M  V30 317 1 278 280
M  V30 318 1 280 281
M  V30 319 1 M   END
M  V30 END BOND
M  V30 END CTAB

