     RDKit          3D

  0  0  0  0  0  0  0  0  0  0999 V3000
M  V30 BEGIN CTAB
M  V30 COUNTS 396 460 0 0 0
M  V30 BEGIN ATOM
M  V30 1 Zn -7.8970 24.2190 14.7540 0
M  V30 2 N -9.8330 23.5940 14.2340 0
M  V30 3 N -7.6880 25.8540 13.3910 0
M  V30 4 N -5.9040 24.9330 15.1470 0
M  V30 5 N -8.0720 22.9180 16.4620 0
M  V30 6 N -7.5250 22.7240 13.2180 0
M  V30 7 N -8.6820 25.5530 16.2840 0
M  V30 8 Zn 1.0170 10.9510 9.4670 0
M  V30 9 N 2.5500 9.5420 9.5060 0
M  V30 10 N -0.3310 9.7420 8.3410 0
M  V30 11 N 2.4770 11.8940 10.7660 0
M  V30 12 N 1.8670 12.0100 7.7230 0
M  V30 13 N -0.2440 9.9920 11.0140 0
M  V30 14 N -0.1240 12.8620 9.3430 0
M  V30 15 Zn -6.5010 11.9380 24.7010 0
M  V30 16 N -4.8680 13.2140 24.8690 0
M  V30 17 N -5.5880 10.3430 25.7910 0
M  V30 18 N -8.4390 11.0290 24.5030 0
M  V30 19 N -7.0510 13.1210 26.4220 0
M  V30 20 N -5.6070 10.6910 23.1230 0
M  V30 21 N -7.6150 13.3710 23.4550 0
M  V30 22 Zn 6.6650 21.1800 20.7940 0
M  V30 23 N 7.9530 22.1820 19.5930 0
M  V30 24 N 5.0180 22.5900 20.4920 0
M  V30 25 N 5.5830 19.8770 22.2240 0
M  V30 26 N 6.8960 22.7150 22.4020 0
M  V30 27 N 8.1980 19.7050 21.6480 0
M  V30 28 N 6.5490 20.0340 18.7790 0
M  V30 29 P -7.5740 13.8660 14.7450 0
M  V30 30 O -8.7170 13.3530 13.9860 0
M  V30 31 C -6.4880 12.7370 15.5260 0
M  V30 32 C -7.8390 14.9500 16.0970 0
M  V30 33 C -6.3610 14.8210 13.8970 0
M  V30 34 O -7.4770 16.8390 14.6080 0
M  V30 35 C -6.4680 16.2100 13.9250 0
M  V30 36 C -7.8160 16.3250 15.8630 0
M  V30 37 O -5.0920 12.7970 13.5460 0
M  V30 38 C -5.2520 14.1630 13.3400 0
M  V30 39 C -5.4170 12.2600 14.8190 0
M  V30 40 O -7.6260 13.0980 17.6230 0
M  V30 41 C -7.8890 14.4270 17.3890 0
M  V30 42 C -6.6230 12.4730 16.8690 0
M  V30 43 C -8.8930 26.8820 16.2140 0
M  V30 44 C -8.6940 24.9930 17.5100 0
M  V30 45 C -8.5110 23.5390 17.4400 0
M  V30 46 C -8.0650 21.4600 16.5510 0
M  V30 47 C 0.2680 13.6490 8.4580 0
M  V30 48 C -1.1510 13.3070 10.2510 0
M  V30 49 C 2.8450 11.5800 6.9130 0
M  V30 50 C 1.3830 13.2510 7.5640 0
M  V30 51 C -5.0720 9.6300 23.5630 0
M  V30 52 C -5.6130 10.8530 21.7140 0
M  V30 53 C -4.9800 9.4080 25.0460 0
M  V30 54 C -5.5450 10.1810 27.1250 0
M  V30 55 C -9.1170 27.6600 17.3330 0
M  V30 56 H -8.8890 27.2990 15.3590 0
M  V30 57 C -9.1300 27.0850 18.5820 0
M  V30 58 H -9.2630 28.5940 17.2430 0
M  V30 59 C -8.9120 25.7240 18.6760 0
M  V30 60 H -9.2820 27.6080 19.3590 0
M  V30 61 H -8.9130 25.2910 19.5220 0
M  V30 62 H -8.7440 23.0300 18.2090 0
M  V30 63 C -9.1650 20.8160 17.0890 0
M  V30 64 C -6.9900 20.7100 16.0880 0
M  V30 65 C -9.1240 19.4510 17.2900 0
M  V30 66 H -9.9440 21.3140 17.3170 0
M  V30 67 C -8.1010 18.6870 16.7430 0
M  V30 68 H -9.8000 19.0300 17.8090 0
M  V30 69 C -7.0230 19.3300 16.1620 0
M  V30 70 C -8.1570 17.2190 16.8650 0
M  V30 71 H -6.3020 18.8190 15.8120 0
M  V30 72 H -6.2320 21.1450 15.7180 0
M  V30 73 C -8.4270 16.6360 18.1280 0
M  V30 74 C -8.3170 15.2840 18.3720 0
M  V30 75 H -8.5430 14.9390 19.2280 0
M  V30 76 H -8.6940 17.2040 18.8410 0
M  V30 77 C -5.6240 16.9410 13.1710 0
M  V30 78 C -4.5630 16.2840 12.5440 0
M  V30 79 H -5.7480 17.8760 13.0700 0
M  V30 80 C -4.3470 14.8990 12.5440 0
M  V30 81 H -3.9350 16.8220 12.0790 0
M  V30 82 C -3.2160 14.2840 11.8330 0
M  V30 83 C -1.9780 14.9090 11.8370 0
M  V30 84 C -3.3970 13.1210 11.0930 0
M  V30 85 C -2.3720 12.6490 10.2880 0
M  V30 86 H -4.2210 12.6540 11.1390 0
M  V30 87 H -2.5070 11.8730 9.7560 0
M  V30 88 C -0.9460 14.4220 11.0460 0
M  V30 89 H -0.1000 14.8570 11.0500 0
M  V30 90 H -1.8380 15.6720 12.3840 0
M  V30 91 H -0.1480 14.4980 8.3570 0
M  V30 92 C 1.8580 14.1030 6.5810 0
M  V30 93 C 2.8830 13.6580 5.7810 0
M  V30 94 H 1.4870 14.9700 6.4670 0
M  V30 95 C 3.4020 12.4130 5.9730 0
M  V30 96 H 3.2290 14.2200 5.0950 0
M  V30 97 H 4.1470 12.1210 5.4600 0
M  V30 98 H 3.1580 10.6850 6.9910 0
M  V30 99 C -4.5710 11.3900 15.3620 0
M  V30 100 C -4.7390 11.0470 16.6820 0
M  V30 101 H -3.8700 11.0070 14.8470 0
M  V30 102 C -5.7640 11.6030 17.4920 0
M  V30 103 H -4.1420 10.4190 17.0720 0
M  V30 104 C -5.7370 11.3480 18.9850 0
M  V30 105 C -6.9080 11.3570 19.7200 0
M  V30 106 C -4.4800 11.4180 19.6640 0
M  V30 107 C -6.7800 10.9500 21.0440 0
M  V30 108 C -4.4080 11.1440 21.0400 0
M  V30 109 H -4.7290 8.9830 22.9600 0
M  V30 110 C -4.2860 8.3290 25.5610 0
M  V30 111 C -4.3360 8.1400 26.9280 0
M  V30 112 H -3.7930 7.7460 24.9990 0
M  V30 113 C -4.9550 9.0750 27.7140 0
M  V30 114 H -3.9450 7.3690 27.3210 0
M  V30 115 H -4.9780 8.9680 28.6560 0
M  V30 116 H -5.9330 10.8480 27.6820 0
M  V30 117 H -7.7400 11.6250 19.3470 0
M  V30 118 H -7.5760 10.7240 21.5110 0
M  V30 119 H -3.5760 11.1600 21.5020 0
M  V30 120 H -3.6940 11.6470 19.1810 0
M  V30 121 P -3.4200 21.4750 23.0530 0
M  V30 122 O -3.9500 22.2750 24.1710 0
M  V30 123 C -2.2450 20.2150 23.3520 0
M  V30 124 C -4.5700 20.5620 22.0840 0
M  V30 125 C -2.5850 22.2800 21.7280 0
M  V30 126 O -4.6650 22.3400 20.4410 0
M  V30 127 C -5.0680 21.0990 20.8950 0
M  V30 128 C -3.3130 22.6590 20.6040 0
M  V30 129 O -4.0540 18.6170 23.4410 0
M  V30 130 C -4.8060 19.2190 22.4300 0
M  V30 131 C -2.6710 18.9230 23.5530 0
M  V30 132 O -0.4660 21.7420 22.7620 0
M  V30 133 C -1.1870 22.3490 21.7560 0
M  V30 134 C -0.8990 20.4780 23.2160 0
M  V30 135 C -8.5430 26.2060 12.4270 0
M  V30 136 C -6.5290 26.5250 13.4990 0
M  V30 137 C -5.6770 26.0250 14.5800 0
M  V30 138 C -5.0120 24.5850 16.2560 0
M  V30 139 C -8.7780 13.0240 23.2020 0
M  V30 140 C -7.1220 14.6540 23.0100 0
M  V30 141 C -9.2780 11.7230 23.7170 0
M  V30 142 C -8.8550 9.8800 25.0650 0
M  V30 143 C 6.3040 19.2380 23.0480 0
M  V30 144 C 4.1980 19.8300 22.4860 0
M  V30 145 C 7.7970 19.2280 22.8370 0
M  V30 146 C 9.4990 19.5710 21.3300 0
M  V30 147 C -8.3090 27.3030 11.6170 0
M  V30 148 H -9.3280 25.6890 12.2910 0
M  V30 149 C -7.1370 28.0070 11.7440 0
M  V30 150 H -8.9570 27.5700 10.9740 0
M  V30 151 C -6.2470 27.6550 12.7460 0
M  V30 152 H -6.9400 28.7270 11.1550 0
M  V30 153 H -5.4680 28.1710 12.9080 0
M  V30 154 H -4.9320 26.5440 14.8640 0
M  V30 155 C -4.3020 23.4000 16.2090 0
M  V30 156 C -5.0120 25.3490 17.4120 0
M  V30 157 C -3.5580 23.0530 17.3190 0
M  V30 158 H -4.3250 22.8420 15.4380 0
M  V30 159 C -3.4260 23.8910 18.4140 0
M  V30 160 H -3.1220 22.2110 17.3350 0
M  V30 161 C -4.1440 25.0670 18.4510 0
M  V30 162 C -2.7210 23.4320 19.6210 0
M  V30 163 H -4.0450 25.6740 19.1760 0
M  V30 164 H -5.6200 26.0750 17.4950 0
M  V30 165 C -1.3320 23.6590 19.7530 0
M  V30 166 C -0.6100 23.1640 20.8150 0
M  V30 167 H 0.3080 23.3940 20.9020 0
M  V30 168 H -0.8840 24.1660 19.0850 0
M  V30 169 C -5.8680 20.3530 20.1080 0
M  V30 170 C -6.4300 19.2140 20.6930 0
M  V30 171 H -6.0410 20.5880 19.2040 0
M  V30 172 C -5.8210 18.5110 21.7460 0
M  V30 173 H -7.2650 18.9010 20.3660 0
M  V30 174 C -6.2750 17.1730 22.1720 0
M  V30 175 C -6.6220 16.9600 23.4970 0
M  V30 176 C -6.2440 16.1030 21.2880 0
M  V30 177 C -7.1750 15.7420 23.8760 0
M  V30 178 H -6.4820 17.6390 24.1440 0
M  V30 179 H -7.5880 15.6500 24.7260 0
M  V30 180 C -6.8910 14.9320 21.6670 0
M  V30 181 H -7.1770 14.3170 21.0030 0
M  V30 182 H -5.7970 16.1680 20.4500 0
M  V30 183 H -9.3460 13.5880 22.6910 0
M  V30 184 C -10.5880 11.3200 23.5200 0
M  V30 185 C -11.0180 10.1630 24.1200 0
M  V30 186 H -11.1770 11.8380 22.9860 0
M  V30 187 C -10.1610 9.4780 24.9340 0
M  V30 188 H -11.8980 9.8410 23.9660 0
M  V30 189 H -10.4720 8.7170 25.4160 0
M  V30 190 H -8.2410 9.3460 25.5540 0
M  V30 191 C -1.8040 17.9640 23.8860 0
M  V30 192 C -0.4590 18.2510 23.8810 0
M  V30 193 H -2.1100 17.0970 24.1220 0
M  V30 194 C 0.0420 19.5290 23.5060 0
M  V30 195 H 0.1560 17.5730 24.1310 0
M  V30 196 C 1.5160 19.6590 23.1600 0
M  V30 197 C 2.1340 18.6130 22.4950 0
M  V30 198 C 2.2590 20.7840 23.4880 0
M  V30 199 C 3.4940 18.6590 22.2430 0
M  V30 200 H 1.6240 17.8600 22.2150 0
M  V30 201 H 3.9440 17.8930 21.9020 0
M  V30 202 C 3.6020 20.8860 23.1550 0
M  V30 203 H 4.1030 21.6610 23.3780 0
M  V30 204 H 1.8390 21.5030 23.9480 0
M  V30 205 H 5.9120 18.7740 23.7790 0
M  V30 206 C 8.6410 18.6170 23.7500 0
M  V30 207 C 9.9690 18.4920 23.4080 0
M  V30 208 H 8.3140 18.2980 24.5800 0
M  V30 209 C 10.4110 18.9690 22.1910 0
M  V30 210 H 10.5770 18.0810 24.0120 0
M  V30 211 H 11.3240 18.8840 21.9450 0
M  V30 212 H 9.8060 19.9030 20.4950 0
M  V30 213 P 1.4450 20.8930 12.3810 0
M  V30 214 O 2.2980 21.6080 11.4160 0
M  V30 215 C 2.0980 19.4510 13.1290 0
M  V30 216 C -0.1000 20.2380 11.8700 0
M  V30 217 C 0.9100 21.7330 13.8310 0
M  V30 218 O -1.2350 22.1870 12.7970 0
M  V30 219 C -0.3410 22.3540 13.8270 0
M  V30 220 C -1.2580 21.0060 12.0430 0
M  V30 221 O 2.8150 20.8160 14.9920 0
M  V30 222 C 1.7180 21.6780 14.9780 0
M  V30 223 C 2.7220 19.5520 14.3510 0
M  V30 224 O 0.9640 18.0890 11.4820 0
M  V30 225 C -0.1390 18.9180 11.3970 0
M  V30 226 C 1.8020 18.2140 12.6000 0
M  V30 227 C -10.9760 23.9370 14.8420 0
M  V30 228 C -9.9020 22.6960 13.2320 0
M  V30 229 C -8.5790 22.2380 12.7780 0
M  V30 230 C -6.2560 22.1640 12.7600 0
M  V30 231 C 5.0770 23.6360 21.1660 0
M  V30 232 C 4.0980 22.6080 19.3780 0
M  V30 233 C 6.0010 23.7100 22.3180 0
M  V30 234 C 7.8690 22.8070 23.3240 0
M  V30 235 C 3.5730 11.2600 10.8260 0
M  V30 236 C 2.4450 13.1770 11.3550 0
M  V30 237 C 2.5700 8.3620 8.8790 0
M  V30 238 C 3.6600 9.9130 10.1620 0
M  V30 239 C -12.2120 23.4180 14.4960 0
M  V30 240 H -10.9360 24.5710 15.5510 0
M  V30 241 C -12.2680 22.5060 13.4760 0
M  V30 242 H -12.9990 23.6900 14.9560 0
M  V30 243 C -11.1050 22.1270 12.8300 0
M  V30 244 H -13.1020 22.1330 13.2140 0
M  V30 245 H -11.1300 21.4930 12.1230 0
M  V30 246 H -8.5300 21.5440 12.1280 0
M  V30 247 C -5.1800 23.0110 12.5300 0
M  V30 248 C -6.1150 20.8120 12.4790 0
M  V30 249 C -3.9690 22.4690 12.1230 0
M  V30 250 H -5.2710 23.9480 12.6500 0
M  V30 251 C -3.8020 21.1130 11.9120 0
M  V30 252 H -3.2300 23.0510 11.9810 0
M  V30 253 C -4.8970 20.2840 12.0760 0
M  V30 254 C -2.4830 20.5290 11.6170 0
M  V30 255 H -4.8150 19.3500 11.9100 0
M  V30 256 H -6.8680 20.2370 12.5650 0
M  V30 257 C -2.4610 19.2930 10.9390 0
M  V30 258 C -1.3330 18.5010 10.8690 0
M  V30 259 H -1.3840 17.6540 10.4460 0
M  V30 260 H -3.2550 18.9880 10.5170 0
M  V30 261 C -0.6620 23.1500 14.8710 0
M  V30 262 C 0.2310 23.2380 15.9420 0
M  V30 263 H -1.4750 23.6440 14.8720 0
M  V30 264 C 1.4340 22.5250 16.0690 0
M  V30 265 H 0.0020 23.8320 16.6490 0
M  V30 266 C 2.3010 22.6170 17.2580 0
M  V30 267 C 2.0770 21.7930 18.3530 0
M  V30 268 C 3.4230 23.4370 17.2200 0
M  V30 269 C 2.9760 21.7890 19.4160 0
M  V30 270 H 1.3080 21.2350 18.3800 0
M  V30 271 H 2.8220 21.2260 20.1650 0
M  V30 272 C 4.3210 23.4320 18.2830 0
M  V30 273 H 5.0890 23.9910 18.2560 0
M  V30 274 H 3.5760 23.9990 16.4710 0
M  V30 275 H 4.5300 24.3800 20.9400 0
M  V30 276 C 6.0670 24.8450 23.1040 0
M  V30 277 C 7.0940 24.9370 24.0170 0
M  V30 278 H 5.4210 25.5350 23.0230 0
M  V30 279 C 7.8150 23.8030 24.2830 0
M  V30 280 H 7.2950 25.7590 24.4470 0
M  V30 281 H 8.2740 23.7050 25.1090 0
M  V30 282 H 8.5920 22.1920 23.3150 0
M  V30 283 C 3.2310 18.4740 14.9450 0
M  V30 284 C 3.0770 17.2420 14.3460 0
M  V30 285 H 3.6970 18.5560 15.7710 0
M  V30 286 C 2.3710 17.0800 13.1200 0
M  V30 287 H 3.4550 16.4790 14.7660 0
M  V30 288 C 2.3220 15.7140 12.4690 0
M  V30 289 C 1.9700 14.6030 13.2230 0
M  V30 290 C 2.6640 15.5570 11.1310 0
M  V30 291 C 2.0120 13.3300 12.6710 0
M  V30 292 H 1.6990 14.7140 14.1240 0
M  V30 293 H 1.7530 12.5720 13.1830 0
M  V30 294 C 2.6930 14.2930 10.5740 0
M  V30 295 H 2.8860 14.1900 9.6470 0
M  V30 296 H 2.8800 16.3180 10.6050 0
M  V30 297 H 4.3220 11.6270 11.2820 0
M  V30 298 C 4.8500 9.2180 10.0920 0
M  V30 299 C 4.8460 8.0010 9.4410 0
M  V30 300 H 5.6470 9.5690 10.4720 0
M  V30 301 C 3.7070 7.5700 8.8040 0
M  V30 302 H 5.6260 7.4570 9.4370 0
M  V30 303 H 3.6960 6.7510 8.3270 0
M  V30 304 H 1.7750 8.0550 8.4610 0
M  V30 305 P 2.6360 11.7390 19.5940 0
M  V30 306 O 3.5020 10.7460 20.2350 0
M  V30 307 C 3.2990 12.7930 18.3620 0
M  V30 308 C 1.2070 11.1910 18.7270 0
M  V30 309 C 1.8610 12.9920 20.5580 0
M  V30 310 O -0.1440 11.6120 20.6840 0
M  V30 311 C -0.0210 11.1680 19.3830 0
M  V30 312 C 0.5570 12.7790 21.0210 0
M  V30 313 O 2.4760 11.2650 16.6820 0
M  V30 314 C 1.2990 10.9500 17.3510 0
M  V30 315 C 3.1890 12.4270 17.0520 0
M  V30 316 O 3.6820 14.5010 20.0240 0
M  V30 317 C 2.4930 14.2330 20.6750 0
M  V30 318 C 3.7830 14.0520 18.6950 0
M  V30 319 C -8.1800 13.1120 27.1530 0
M  V30 320 C -6.1360 14.0660 26.7130 0
M  V30 321 C -4.9630 13.9870 25.8370 0
M  V30 322 C -3.6790 13.3480 24.0210 0
M  V30 323 C -1.1760 9.3160 10.5550 0
M  V30 324 C -0.1060 10.1540 12.4370 0
M  V30 325 C -1.3230 9.2090 9.0760 0
M  V30 326 C -0.3910 9.5930 7.0070 0
M  V30 327 C 7.2930 20.5900 17.9180 0
M  V30 328 C 5.9930 18.7750 18.4610 0
M  V30 329 C 7.9880 21.8770 18.2870 0
M  V30 330 C 8.5440 23.3260 19.9820 0
M  V30 331 C -8.4410 14.0060 28.1730 0
M  V30 332 H -8.8350 12.4500 26.9590 0
M  V30 333 C -7.4960 14.9640 28.4540 0
M  V30 334 H -9.2510 13.9620 28.6650 0
M  V30 335 C -6.3260 15.0010 27.7240 0
M  V30 336 H -7.6470 15.5960 29.1480 0
M  V30 337 H -5.6600 15.6530 27.9090 0
M  V30 338 H -4.2290 14.5590 26.0210 0
M  V30 339 C -3.3950 14.5340 23.3610 0
M  V30 340 C -2.7900 12.2930 23.9090 0
M  V30 341 C -2.2310 14.6350 22.6080 0
M  V30 342 H -3.9930 15.2690 23.4220 0
M  V30 343 C -1.3780 13.5570 22.4580 0
M  V30 344 H -2.0160 15.4630 22.1890 0
M  V30 345 C -1.6670 12.3760 23.1130 0
M  V30 346 C -0.0720 13.7190 21.8070 0
M  V30 347 H -1.0930 11.6270 23.0200 0
M  V30 348 H -2.9610 11.4900 24.3920 0
M  V30 349 C 0.6620 14.8950 22.0840 0
M  V30 350 C 1.8900 15.1350 21.5080 0
M  V30 351 H 2.3310 15.9580 21.6940 0
M  V30 352 H 0.2990 15.5330 22.6830 0
M  V30 353 C -1.0720 10.6120 18.7650 0
M  V30 354 C -0.9710 10.2740 17.4120 0
M  V30 355 H -1.8780 10.4500 19.2380 0
M  V30 356 C 0.1830 10.4550 16.6450 0
M  V30 357 H -1.7350 9.8990 16.9890 0
M  V30 358 C 0.1310 10.4270 15.1750 0
M  V30 359 C 1.1720 9.8570 14.4630 0
M  V30 360 C -0.9840 10.9310 14.5240 0
M  V30 361 C -1.1240 10.7690 13.1570 0
M  V30 362 H -1.6540 11.3860 15.0190 0
M  V30 363 H -1.9070 11.0770 12.7140 0
M  V30 364 C 1.0560 9.7550 13.0830 0
M  V30 365 H 1.7810 9.4120 12.5740 0
M  V30 366 H 1.9510 9.5460 14.9090 0
M  V30 367 H -1.7830 8.8710 11.1330 0
M  V30 368 C -2.3940 8.5240 8.5280 0
M  V30 369 C -2.4430 8.3850 7.1610 0
M  V30 370 H -3.0770 8.1640 9.0820 0
M  V30 371 C -1.4350 8.9170 6.3890 0
M  V30 372 H -3.1650 7.9230 6.7550 0
M  V30 373 H -1.4570 8.8270 5.4430 0
M  V30 374 H 0.3020 9.9600 6.4690 0
M  V30 375 C 3.8700 13.1030 16.1250 0
M  V30 376 C 4.4910 14.2880 16.4620 0
M  V30 377 H 3.9240 12.7730 15.2390 0
M  V30 378 C 4.4060 14.8440 17.7730 0
M  V30 379 H 4.9910 14.7480 15.7990 0
M  V30 380 C 4.8990 16.2700 17.9500 0
M  V30 381 C 6.1100 16.6310 17.3750 0
M  V30 382 C 4.2340 17.1630 18.7840 0
M  V30 383 C 6.6580 17.8810 17.6270 0
M  V30 384 H 6.5650 16.0190 16.8050 0
M  V30 385 H 7.4860 18.1270 17.2330 0
M  V30 386 C 4.7800 18.4130 19.0360 0
M  V30 387 H 4.3260 19.0240 19.6070 0
M  V30 388 H 3.4050 16.9160 19.1780 0
M  V30 389 H 7.4100 20.2050 17.0590 0
M  V30 390 C 8.5940 22.6640 17.3280 0
M  V30 391 C 9.1970 23.8310 17.7440 0
M  V30 392 H 8.5960 22.4090 16.4140 0
M  V30 393 C 9.1770 24.1730 19.0780 0
M  V30 394 H 9.6260 24.3980 17.1110 0
M  V30 395 H 9.5880 24.9770 19.3770 0
M  V30 396 H 8.5290 23.5650 20.9020 0
M  V30 END ATOM
M  V30 BEGIN BOND
M  V30 1 1   1   6
M  V30 2 1   1   3
M  V30 3 1   1   2
M  V30 4 1   1   4
M  V30 5 1   1   7
M  V30 6 1   1   5
M  V30 7 1   2 228
M  V30 8 1   2 227
M  V30 9 1   3 135
M  V30 10 1   3 136
M  V30 11 1   4 137
M  V30 12 1   4 138
M  V30 13 1   5  46
M  V30 14 1   5  45
M  V30 15 1   6 230
M  V30 16 1   6 229
M  V30 17 1   7  43
M  V30 18 1   7  44
M  V30 19 1   8  12
M  V30 20 1   8  10
M  V30 21 1   8  14
M  V30 22 1   8   9
M  V30 23 1   8  11
M  V30 24 1   8  13
M  V30 25 1   9 237
M  V30 26 1   9 238
M  V30 27 1  10 326
M  V30 28 1  10 325
M  V30 29 1  11 235
M  V30 30 1  11 236
M  V30 31 1  12  49
M  V30 32 1  12  50
M  V30 33 1  13 323
M  V30 34 1  13 324
M  V30 35 1  14  47
M  V30 36 1  14  48
M  V30 37 1  15  20
M  V30 38 1  15  21
M  V30 39 1  15  18
M  V30 40 1  15  16
M  V30 41 1  15  17
M  V30 42 1  15  19
M  V30 43 1  16 322
M  V30 44 1  16 321
M  V30 45 1  17  53
M  V30 46 1  17  54
M  V30 47 1  18 141
M  V30 48 1  18 142
M  V30 49 1  19 320
M  V30 50 1  19 319
M  V30 51 1  20  52
M  V30 52 1  20  51
M  V30 53 1  21 140
M  V30 54 1  21 139
M  V30 55 1  22  28
M  V30 56 1  22  23
M  V30 57 1  22  24
M  V30 58 1  22  27
M  V30 59 1  22  25
M  V30 60 1  22  26
M  V30 61 1  23 329
M  V30 62 1  23 330
M  V30 63 1  24 232
M  V30 64 1  24 231
M  V30 65 1  25 144
M  V30 66 1  25 143
M  V30 67 1  26 233
M  V30 68 1  26 234
M  V30 69 1  27 146
M  V30 70 1  27 145
M  V30 71 1  28 327
M  V30 72 1  28 328
M  V30 73 1  29  33
M  V30 74 1  29  30
M  V30 75 1  29  31
M  V30 76 1  29  32
M  V30 77 1  31  39
M  V30 78 1  31  42
M  V30 79 1  32  36
M  V30 80 1  32  41
M  V30 81 1  33  38
M  V30 82 1  33  35
M  V30 83 1  34  35
M  V30 84 1  34  36
M  V30 85 1  35  77
M  V30 86 1  36  70
M  V30 87 1  37  38
M  V30 88 1  37  39
M  V30 89 1  38  80
M  V30 90 1  39  99
M  V30 91 1  40  42
M  V30 92 1  40  41
M  V30 93 1  41  74
M  V30 94 1  42 102
M  V30 95 1  43  56
M  V30 96 1  43  55
M  V30 97 1  44  45
M  V30 98 1  44  59
M  V30 99 1  45  62
M  V30 100 1  46  64
M  V30 101 1  46  63
M  V30 102 1  47  50
M  V30 103 1  47  91
M  V30 104 1  48  85
M  V30 105 1  48  88
M  V30 106 1  49  95
M  V30 107 1  49  98
M  V30 108 1  50  92
M  V30 109 1  51 109
M  V30 110 1  51  53
M  V30 111 1  52 108
M  V30 112 1  52 107
M  V30 113 1  53 110
M  V30 114 1  54 116
M  V30 115 1  54 113
M  V30 116 1  55  58
M  V30 117 1  55  57
M  V30 118 1  57  59
M  V30 119 1  57  60
M  V30 120 1  59  61
M  V30 121 1  63  65
M  V30 122 1  63  66
M  V30 123 1  64  72
M  V30 124 1  64  69
M  V30 125 1  65  67
M  V30 126 1  65  68
M  V30 127 1  67  69
M  V30 128 1  67  70
M  V30 129 1  69  71
M  V30 130 1  70  73
M  V30 131 1  73  74
M  V30 132 1  73  76
M  V30 133 1  74  75
M  V30 134 1  77  78
M  V30 135 1  77  79
M  V30 136 1  78  81
M  V30 137 1  78  80
M  V30 138 1  80  82
M  V30 139 1  82  84
M  V30 140 1  82  83
M  V30 141 1  83  88
M  V30 142 1  83  90
M  V30 143 1  84  85
M  V30 144 1  84  86
M  V30 145 1  85  87
M  V30 146 1  88  89
M  V30 147 1  92  93
M  V30 148 1  92  94
M  V30 149 1  93  96
M  V30 150 1  93  95
M  V30 151 1  95  97
M  V30 152 1  99 101
M  V30 153 1  99 100
M  V30 154 1 100 103
M  V30 155 1 100 102
M  V30 156 1 102 104
M  V30 157 1 104 106
M  V30 158 1 104 105
M  V30 159 1 105 117
M  V30 160 1 105 107
M  V30 161 1 106 120
M  V30 162 1 106 108
M  V30 163 1 107 118
M  V30 164 1 108 119
M  V30 165 1 110 112
M  V30 166 1 110 111
M  V30 167 1 111 114
M  V30 168 1 111 113
M  V30 169 1 113 115
M  V30 170 1 121 125
M  V30 171 1 121 124
M  V30 172 1 121 123
M  V30 173 1 121 122
M  V30 174 1 123 134
M  V30 175 1 123 131
M  V30 176 1 124 127
M  V30 177 1 124 130
M  V30 178 1 125 128
M  V30 179 1 125 133
M  V30 180 1 126 128
M  V30 181 1 126 127
M  V30 182 1 127 169
M  V30 183 1 128 162
M  V30 184 1 129 130
M  V30 185 1 129 131
M  V30 186 1 130 172
M  V30 187 1 131 191
M  V30 188 1 132 133
M  V30 189 1 132 134
M  V30 190 1 133 166
M  V30 191 1 134 194
M  V30 192 1 135 147
M  V30 193 1 135 148
M  V30 194 1 136 151
M  V30 195 1 136 137
M  V30 196 1 137 154
M  V30 197 1 138 155
M  V30 198 1 138 156
M  V30 199 1 139 183
M  V30 200 1 139 141
M  V30 201 1 140 180
M  V30 202 1 140 177
M  V30 203 1 141 184
M  V30 204 1 142 187
M  V30 205 1 142 190
M  V30 206 1 143 145
M  V30 207 1 143 205
M  V30 208 1 144 199
M  V30 209 1 144 202
M  V30 210 1 145 206
M  V30 211 1 146 212
M  V30 212 1 146 209
M  V30 213 1 147 150
M  V30 214 1 147 149
M  V30 215 1 149 152
M  V30 216 1 149 151
M  V30 217 1 151 153
M  V30 218 1 155 158
M  V30 219 1 155 157
M  V30 220 1 156 164
M  V30 221 1 156 161
M  V30 222 1 157 160
M  V30 223 1 157 159
M  V30 224 1 159 161
M  V30 225 1 159 162
M  V30 226 1 161 163
M  V30 227 1 162 165
M  V30 228 1 165 168
M  V30 229 1 165 166
M  V30 230 1 166 167
M  V30 231 1 169 171
M  V30 232 1 169 170
M  V30 233 1 170 173
M  V30 234 1 170 172
M  V30 235 1 172 174
M  V30 236 1 174 176
M  V30 237 1 174 175
M  V30 238 1 175 177
M  V30 239 1 175 178
M  V30 240 1 176 182
M  V30 241 1 176 180
M  V30 242 1 177 179
M  V30 243 1 180 181
M  V30 244 1 184 186
M  V30 245 1 184 185
M  V30 246 1 185 188
M  V30 247 1 185 187
M  V30 248 1 187 189
M  V30 249 1 191 192
M  V30 250 1 191 193
M  V30 251 1 192 194
M  V30 252 1 192 195
M  V30 253 1 194 196
M  V30 254 1 196 197
M  V30 255 1 196 198
M  V30 256 1 197 200
M  V30 257 1 197 199
M  V30 258 1 198 202
M  V30 259 1 198 204
M  V30 260 1 199 201
M  V30 261 1 202 203
M  V30 262 1 206 207
M  V30 263 1 206 208
M  V30 264 1 207 209
M  V30 265 1 207 210
M  V30 266 1 209 211
M  V30 267 1 213 214
M  V30 268 1 213 216
M  V30 269 1 213 215
M  V30 270 1 213 217
M  V30 271 1 215 226
M  V30 272 1 215 223
M  V30 273 1 216 225
M  V30 274 1 216 220
M  V30 275 1 217 219
M  V30 276 1 217 222
M  V30 277 1 218 220
M  V30 278 1 218 219
M  V30 279 1 219 261
M  V30 280 1 220 254
M  V30 281 1 221 223
M  V30 282 1 221 222
M  V30 283 1 222 264
M  V30 284 1 223 283
M  V30 285 1 224 225
M  V30 286 1 224 226
M  V30 287 1 225 258
M  V30 288 1 226 286
M  V30 289 1 227 239
M  V30 290 1 227 240
M  V30 291 1 228 229
M  V30 292 1 228 243
M  V30 293 1 229 246
M  V30 294 1 230 248
M  V30 295 1 230 247
M  V30 296 1 231 275
M  V30 297 1 231 233
M  V30 298 1 232 272
M  V30 299 1 232 269
M  V30 300 1 233 276
M  V30 301 1 234 282
M  V30 302 1 234 279
M  V30 303 1 235 238
M  V30 304 1 235 297
M  V30 305 1 236 294
M  V30 306 1 236 291
M  V30 307 1 237 304
M  V30 308 1 237 301
M  V30 309 1 238 298
M  V30 310 1 239 241
M  V30 311 1 239 242
M  V30 312 1 241 243
M  V30 313 1 241 244
M  V30 314 1 243 245
M  V30 315 1 247 249
M  V30 316 1 247 250
M  V30 317 1 248 253
M  V30 318 1 248 256
M  V30 319 1 249 251
M  V30 320 1 249 252
M  V30 321 1 251 254
M  V30 322 1 251 253
M  V30 323 1 253 255
M  V30 324 1 254 257
M  V30 325 1 257 260
M  V30 326 1 257 258
M  V30 327 1 258 259
M  V30 328 1 261 263
M  V30 329 1 261 262
M  V30 330 1 262 264
M  V30 331 1 262 265
M  V30 332 1 264 266
M  V30 333 1 266 268
M  V30 334 1 266 267
M  V30 335 1 267 270
M  V30 336 1 267 269
M  V30 337 1 268 274
M  V30 338 1 268 272
M  V30 339 1 269 271
M  V30 340 1 272 273
M  V30 341 1 276 278
M  V30 342 1 276 277
M  V30 343 1 277 279
M  V30 344 1 277 280
M  V30 345 1 279 281
M  V30 346 1 283 284
M  V30 347 1 283 285
M  V30 348 1 284 286
M  V30 349 1 284 287
M  V30 350 1 286 288
M  V30 351 1 288 290
M  V30 352 1 288 289
M  V30 353 1 289 291
M  V30 354 1 289 292
M  V30 355 1 290 294
M  V30 356 1 290 296
M  V30 357 1 291 293
M  V30 358 1 294 295
M  V30 359 1 298 299
M  V30 360 1 298 300
M  V30 361 1 299 301
M  V30 362 1 299 302
M  V30 363 1 301 303
M  V30 364 1 305 307
M  V30 365 1 305 308
M  V30 366 1 305 306
M  V30 367 1 305 309
M  V30 368 1 307 315
M  V30 369 1 307 318
M  V30 370 1 308 314
M  V30 371 1 308 311
M  V30 372 1 309 317
M  V30 373 1 309 312
M  V30 374 1 310 311
M  V30 375 1 310 312
M  V30 376 1 311 353
M  V30 377 1 312 346
M  V30 378 1 313 315
M  V30 379 1 313 314
M  V30 380 1 314 356
M  V30 381 1 315 375
M  V30 382 1 316 318
M  V30 383 1 316 317
M  V30 384 1 317 350
M  V30 385 1 318 378
M  V30 386 1 319 332
M  V30 387 1 319 331
M  V30 388 1 320 321
M  V30 389 1 320 335
M  V30 390 1 321 338
M  V30 391 1 322 339
M  V30 392 1 322 340
M  V30 393 1 323 325
M  V30 394 1 323 367
M  V30 395 1 324 364
M  V30 396 1 324 361
M  V30 397 1 325 368
M  V30 398 1 326 371
M  V30 399 1 326 374
M  V30 400 1 327 389
M  V30 401 1 327 329
M  V30 402 1 328 383
M  V30 403 1 328 386
M  V30 404 1 329 390
M  V30 405 1 330 393
M  V30 406 1 330 396
M  V30 407 1 331 333
M  V30 408 1 331 334
M  V30 409 1 333 335
M  V30 410 1 333 336
M  V30 411 1 335 337
M  V30 412 1 339 341
M  V30 413 1 339 342
M  V30 414 1 340 345
M  V30 415 1 340 348
M  V30 416 1 341 344
M  V30 417 1 341 343
M  V30 418 1 343 346
M  V30 419 1 343 345
M  V30 420 1 345 347
M  V30 421 1 346 349
M  V30 422 1 349 350
M  V30 423 1 349 352
M  V30 424 1 350 351
M  V30 425 1 353 354
M  V30 426 1 353 355
M  V30 427 1 354 356
M  V30 428 1 354 357
M  V30 429 1 356 358
M  V30 430 1 358 359
M  V30 431 1 358 360
M  V30 432 1 359 364
M  V30 433 1 359 366
M  V30 434 1 360 361
M  V30 435 1 360 362
M  V30 436 1 361 363
M  V30 437 1 364 365
M  V30 438 1 368 369
M  V30 439 1 368 370
M  V30 440 1 369 371
M  V30 441 1 369 372
M  V30 442 1 371 373
M  V30 443 1 375 377
M  V30 444 1 375 376
M  V30 445 1 376 379
M  V30 446 1 376 378
M  V30 447 1 378 380
M  V30 448 1 380 381
M  V30 449 1 380 382
M  V30 450 1 381 384
M  V30 451 1 381 383
M  V30 452 1 382 386
M  V30 453 1 382 388
M  V30 454 1 383 385
M  V30 455 1 386 387
M  V30 456 1 390 392
M  V30 457 1 390 391
M  V30 458 1 391 394
M  V30 459 1 391 393
M  V30 460 1 393 395
M  V30 461 1 M   END
M  V30 END BOND
M  V30 END CTAB

