     RDKit          3D

  0  0  0  0  0  0  0  0  0  0999 V3000
M  V30 BEGIN CTAB
M  V30 COUNTS 396 460 0 0 0
M  V30 BEGIN ATOM
M  V30 1 Zn 2.4810 22.0120 16.0830 0
M  V30 2 Zn 15.0830 34.3490 14.6430 0
M  V30 3 P 4.3240 32.7120 13.8710 0
M  V30 4 P 12.8800 23.7620 12.8040 0
M  V30 5 O 3.0600 30.0250 13.8210 0
M  V30 6 O 7.1730 32.4100 14.6770 0
M  V30 7 O 4.2620 33.8290 11.0950 0
M  V30 8 O 3.6090 33.5990 14.8050 0
M  V30 9 O 14.0140 26.5040 12.4210 0
M  V30 10 O 10.2670 24.0630 14.2180 0
M  V30 11 O 12.3740 22.5880 10.1190 0
M  V30 12 O 13.8070 22.8830 13.5520 0
M  V30 13 N 15.5560 33.7620 16.6650 0
M  V30 14 N 13.1740 33.8510 15.4130 0
M  V30 15 N 1.5770 35.0380 5.3590 0
M  V30 16 N 1.0700 36.4700 3.1220 0
M  V30 17 N 1.8080 24.0750 15.5610 0
M  V30 18 N 0.2870 21.8630 16.0300 0
M  V30 19 N 13.2860 19.8970 1.7110 0
M  V30 20 C 13.3210 19.1950 2.9110 0
M  V30 21 C 13.3320 17.8080 2.9050 0
M  V30 22 H 13.3550 17.3290 3.7240 0
M  V30 23 C 13.3110 17.1170 1.7000 0
M  V30 24 H 13.3190 16.1650 1.6960 0
M  V30 25 C 13.2770 17.8160 0.4980 0
M  V30 26 H 13.2630 17.3460 -0.3250 0
M  V30 27 C 13.2660 19.2090 0.5040 0
M  V30 28 H 13.2420 19.6830 -0.3180 0
M  V30 29 N 13.3430 21.2720 4.0350 0
M  V30 30 N 15.5950 32.4050 13.8030 0
M  V30 31 N 17.1140 34.5990 13.9440 0
M  V30 32 N 2.6310 22.5300 18.1410 0
M  V30 33 N 4.5490 22.4900 16.2720 0
M  V30 34 C 16.7880 33.6540 17.2320 0
M  V30 35 H 17.5570 33.9090 16.7340 0
M  V30 36 C 16.9380 33.1750 18.5160 0
M  V30 37 H 17.8040 33.1310 18.9020 0
M  V30 38 C 15.8890 32.7770 19.2090 0
M  V30 39 H 16.0000 32.4550 20.0930 0
M  V30 40 C 14.6240 32.8350 18.6430 0
M  V30 41 H 13.8590 32.5220 19.1120 0
M  V30 42 C 14.5180 33.3720 17.3510 0
M  V30 43 C 13.1990 33.4310 16.6330 0
M  V30 44 H 12.4000 33.1620 17.0690 0
M  V30 45 C 11.9240 33.7980 14.7880 0
M  V30 46 C 16.6900 32.3960 13.1930 0
M  V30 47 H 16.9800 31.6130 12.7390 0
M  V30 48 C 11.2570 32.6290 14.5940 0
M  V30 49 H 11.6600 31.8100 14.8610 0
M  V30 50 C 10.0380 32.6110 14.0270 0
M  V30 51 H 9.5860 31.7790 13.9550 0
M  V30 52 C 9.4070 33.7390 13.5510 0
M  V30 53 C 10.1040 34.9390 13.6910 0
M  V30 54 H 9.7210 35.7400 13.3630 0
M  V30 55 C 11.3860 34.9750 14.3230 0
M  V30 56 H 11.8570 35.7990 14.4200 0
M  V30 57 C 8.0690 33.8070 12.9440 0
M  V30 58 C 6.9610 33.2250 13.5290 0
M  V30 59 C 5.6810 33.3500 13.0200 0
M  V30 60 C 5.5030 33.8960 11.7640 0
M  V30 61 C 6.5460 34.5230 11.1260 0
M  V30 62 H 6.4150 34.9610 10.2920 0
M  V30 63 C 7.8220 34.5090 11.7390 0
M  V30 64 H 8.5360 34.9790 11.3280 0
M  V30 65 C 3.4750 32.6690 11.2920 0
M  V30 66 C 3.4480 31.9760 12.5440 0
M  V30 67 C 2.8790 30.7630 12.6700 0
M  V30 68 C 2.1290 30.2390 11.6270 0
M  V30 69 H 1.7100 29.3880 11.6960 0
M  V30 70 C 2.0160 31.0220 10.4580 0
M  V30 71 H 1.4220 30.7130 9.7830 0
M  V30 72 C 2.6920 32.1860 10.2230 0
M  V30 73 C 2.4830 32.9870 8.9500 0
M  V30 74 C 1.1880 33.1480 8.4910 0
M  V30 75 H 0.4780 32.7640 8.9890 0
M  V30 76 C 0.8910 33.8240 7.3760 0
M  V30 77 H -0.0120 33.9540 7.1090 0
M  V30 78 C 1.9150 34.3260 6.6360 0
M  V30 79 C 3.2040 34.1830 7.0550 0
M  V30 80 H 3.9110 34.5760 6.5570 0
M  V30 81 C 3.4850 33.4710 8.1810 0
M  V30 82 H 4.3890 33.3100 8.4300 0
M  V30 83 C 1.7180 36.2640 5.3910 0
M  V30 84 H 2.0770 36.6670 6.1740 0
M  V30 85 C 0.7690 37.1280 2.0240 0
M  V30 86 H 0.5630 36.6220 1.2450 0
M  V30 87 C 0.7340 38.4980 1.9270 0
M  V30 88 H 0.5650 38.9500 1.1110 0
M  V30 89 C 0.9690 39.1960 3.1680 0
M  V30 90 H 0.8730 40.1410 3.2080 0
M  V30 91 C 1.3390 38.4890 4.3090 0
M  V30 92 H 1.5780 38.9500 5.1060 0
M  V30 93 C 1.3550 37.1150 4.2690 0
M  V30 94 C 5.0220 31.2590 14.5140 0
M  V30 95 C 6.3890 31.2950 14.8930 0
M  V30 96 C 6.9370 30.1310 15.4630 0
M  V30 97 H 7.8340 30.1220 15.7740 0
M  V30 98 C 6.1500 29.0170 15.5570 0
M  V30 99 H 6.5010 28.2650 16.0190 0
M  V30 100 C 4.8280 28.9090 14.9980 0
M  V30 101 C 4.3450 30.0690 14.4640 0
M  V30 102 C 4.0760 27.6690 15.0740 0
M  V30 103 C 3.2900 27.1680 14.0670 0
M  V30 104 H 3.2500 27.6380 13.2440 0
M  V30 105 C 2.5580 26.0080 14.2000 0
M  V30 106 H 2.0150 25.7220 13.4750 0
M  V30 107 C 2.5940 25.2390 15.3870 0
M  V30 108 C 3.4060 25.7090 16.4120 0
M  V30 109 H 3.4730 25.2120 17.2210 0
M  V30 110 C 4.1340 26.9170 16.2640 0
M  V30 111 H 4.6730 27.2260 16.9860 0
M  V30 112 C 0.5900 24.1460 15.3730 0
M  V30 113 H 0.2040 24.9650 15.0810 0
M  V30 114 C -0.2610 22.9820 15.6040 0
M  V30 115 C -1.6510 23.1120 15.4490 0
M  V30 116 H -2.0630 23.9130 15.1570 0
M  V30 117 C -2.3930 21.9480 15.7630 0
M  V30 118 H -3.3390 21.9750 15.6760 0
M  V30 119 C -1.8200 20.8110 16.1810 0
M  V30 120 H -2.3600 20.0680 16.4270 0
M  V30 121 C -0.4290 20.7220 16.2540 0
M  V30 122 H 0.0020 19.9030 16.4520 0
M  V30 123 C 13.3150 19.9880 4.0630 0
M  V30 124 H 13.2900 19.5580 4.9110 0
M  V30 125 C 13.6090 24.2490 8.8950 0
M  V30 126 C 14.2990 25.4220 8.9350 0
M  V30 127 H 14.7200 25.7040 8.1300 0
M  V30 128 C 14.4460 26.2550 10.0650 0
M  V30 129 H 14.8280 27.1230 10.0140 0
M  V30 130 C 13.9820 25.7040 11.2700 0
M  V30 131 C 13.4310 24.4780 11.2590 0
M  V30 132 C 13.1360 23.7390 10.1300 0
M  V30 133 C 11.2810 22.5210 10.9700 0
M  V30 134 C 10.1120 21.9890 10.5810 0
M  V30 135 H 10.0230 21.6350 9.7040 0
M  V30 136 C 8.9970 21.9570 11.4830 0
M  V30 137 H 8.2200 21.4650 11.2410 0
M  V30 138 C 9.0260 22.6240 12.7130 0
M  V30 139 C 10.1980 23.2730 13.0820 0
M  V30 140 C 11.3830 23.0810 12.2590 0
M  V30 141 C 7.7960 22.6470 13.5580 0
M  V30 142 C 7.0390 21.4690 13.7090 0
M  V30 143 H 7.2750 20.7080 13.1930 0
M  V30 144 C 5.9650 21.3750 14.5760 0
M  V30 145 H 5.4740 20.5650 14.6770 0
M  V30 146 C 5.6400 22.5260 15.2940 0
M  V30 147 C 6.3130 23.7030 15.1240 0
M  V30 148 H 6.0320 24.4690 15.6110 0
M  V30 149 C 7.3950 23.8060 14.2620 0
M  V30 150 H 7.8520 24.6300 14.1430 0
M  V30 151 C 4.8640 22.8660 17.4440 0
M  V30 152 H 5.7610 23.1080 17.6430 0
M  V30 153 C 3.8650 22.9240 18.4770 0
M  V30 154 C 4.1450 23.4880 19.7290 0
M  V30 155 H 5.0270 23.7610 19.9490 0
M  V30 156 C 3.1110 23.6400 20.6490 0
M  V30 157 H 3.2760 23.9990 21.5110 0
M  V30 158 C 1.8850 23.2690 20.2810 0
M  V30 159 H 1.1590 23.4210 20.8730 0
M  V30 160 C 1.6450 22.6780 19.0650 0
M  V30 161 H 0.7710 22.3600 18.8660 0
M  V30 162 C 11.0690 25.2070 14.2400 0
M  V30 163 C 12.3100 25.2120 13.5220 0
M  V30 164 C 12.9310 26.4020 13.3230 0
M  V30 165 C 12.5540 27.6020 13.9760 0
M  V30 166 C 11.3990 27.4590 14.7740 0
M  V30 167 H 11.1200 28.2200 15.2650 0
M  V30 168 C 10.6390 26.3170 14.9110 0
M  V30 169 H 9.8530 26.3040 15.4450 0
M  V30 170 C 13.3090 28.8060 13.8830 0
M  V30 171 C 13.7410 29.4020 12.6740 0
M  V30 172 H 13.4980 28.9850 11.8550 0
M  V30 173 C 14.4570 30.4980 12.6230 0
M  V30 174 H 14.7470 30.8250 11.7820 0
M  V30 175 C 14.8080 31.2060 13.8100 0
M  V30 176 C 14.3510 30.6770 15.0050 0
M  V30 177 H 14.5570 31.1160 15.8240 0
M  V30 178 C 13.5870 29.5050 15.0190 0
M  V30 179 H 13.2510 29.1870 15.8460 0
M  V30 180 C 17.5120 33.5960 13.1900 0
M  V30 181 C 18.7260 33.6810 12.4610 0
M  V30 182 H 19.0120 32.9470 11.9270 0
M  V30 183 C 19.4770 34.8140 12.5190 0
M  V30 184 H 20.2900 34.8720 12.0310 0
M  V30 185 C 19.0650 35.8790 13.2840 0
M  V30 186 H 19.5750 36.6760 13.3310 0
M  V30 187 C 17.8530 35.7360 14.0020 0
M  V30 188 H 17.5500 36.4570 14.5390 0
M  V30 189 C 12.8600 23.8690 6.5140 0
M  V30 190 H 12.4470 24.7190 6.5500 0
M  V30 191 C 13.5120 23.3580 7.6320 0
M  V30 192 C 14.1170 22.1090 7.5750 0
M  V30 193 H 14.5620 21.7650 8.3400 0
M  V30 194 C 14.0720 21.3660 6.4020 0
M  V30 195 H 14.4860 20.5110 6.3620 0
M  V30 196 C 13.4200 21.8770 5.2830 0
M  V30 197 C 12.8150 23.1260 5.3370 0
M  V30 198 H 12.3700 23.4700 4.5760 0
M  V30 199 Zn 13.4730 22.0120 1.9610 0
M  V30 200 Zn 0.8710 34.3490 3.4010 0
M  V30 201 P 11.6310 32.7120 4.1720 0
M  V30 202 P 3.0740 23.7620 5.2390 0
M  V30 203 O 12.8940 30.0250 4.2220 0
M  V30 204 O 8.7810 32.4100 3.3670 0
M  V30 205 O 11.6930 33.8290 6.9480 0
M  V30 206 O 12.3460 33.5990 3.2380 0
M  V30 207 O 1.9410 26.5040 5.6230 0
M  V30 208 O 5.6870 24.0630 3.8260 0
M  V30 209 O 3.5810 22.5880 7.9250 0
M  V30 210 O 2.1480 22.8830 4.4910 0
M  V30 211 N 0.3980 33.7620 1.3790 0
M  V30 212 N 2.7800 33.8510 2.6310 0
M  V30 213 N 14.3780 35.0380 12.6850 0
M  V30 214 N 14.8850 36.4700 14.9220 0
M  V30 215 N 14.1460 24.0750 2.4830 0
M  V30 216 N 15.6680 21.8630 2.0140 0
M  V30 217 N 2.6680 19.8970 16.3330 0
M  V30 218 C 2.6340 19.1950 15.1320 0
M  V30 219 C 2.6220 17.8080 15.1390 0
M  V30 220 H 2.6000 17.3290 14.3190 0
M  V30 221 C 2.6430 17.1170 16.3440 0
M  V30 222 H 2.6350 16.1650 16.3470 0
M  V30 223 C 2.6770 17.8160 17.5460 0
M  V30 224 H 2.6920 17.3460 18.3680 0
M  V30 225 C 2.6890 19.2090 17.5390 0
M  V30 226 H 2.7130 19.6830 18.3610 0
M  V30 227 N 2.6120 21.2720 14.0090 0
M  V30 228 N 0.3600 32.4050 4.2400 0
M  V30 229 N -1.1600 34.5990 4.0990 0
M  V30 230 N 13.3230 22.5300 -0.0970 0
M  V30 231 N 11.4060 22.4900 1.7720 0
M  V30 232 C -0.8340 33.6540 0.8120 0
M  V30 233 H -1.6020 33.9090 1.3100 0
M  V30 234 C -0.9830 33.1750 -0.4730 0
M  V30 235 H -1.8500 33.1310 -0.8590 0
M  V30 236 C 0.0650 32.7770 -1.1660 0
M  V30 237 H -0.0460 32.4550 -2.0500 0
M  V30 238 C 1.3300 32.8350 -0.5990 0
M  V30 239 H 2.0950 32.5220 -1.0680 0
M  V30 240 C 1.4370 33.3720 0.6930 0
M  V30 241 C 2.7560 33.4310 1.4110 0
M  V30 242 H 3.5550 33.1620 0.9740 0
M  V30 243 C 4.0310 33.7980 3.2550 0
M  V30 244 C -0.7350 32.3960 4.8500 0
M  V30 245 H -1.0260 31.6130 5.3050 0
M  V30 246 C 4.6970 32.6290 3.4500 0
M  V30 247 H 4.2950 31.8100 3.1830 0
M  V30 248 C 5.9160 32.6110 4.0160 0
M  V30 249 H 6.3690 31.7790 4.0890 0
M  V30 250 C 6.5470 33.7390 4.4930 0
M  V30 251 C 5.8500 34.9390 4.3520 0
M  V30 252 H 6.2340 35.7400 4.6800 0
M  V30 253 C 4.5680 34.9750 3.7210 0
M  V30 254 H 4.0970 35.7990 3.6230 0
M  V30 255 C 7.8860 33.8070 5.0990 0
M  V30 256 C 8.9930 33.2250 4.5140 0
M  V30 257 C 10.2730 33.3500 5.0230 0
M  V30 258 C 10.4520 33.8960 6.2790 0
M  V30 259 C 9.4080 34.5230 6.9180 0
M  V30 260 H 9.5400 34.9610 7.7510 0
M  V30 261 C 8.1330 34.5090 6.3040 0
M  V30 262 H 7.4190 34.9790 6.7160 0
M  V30 263 C 12.4800 32.6690 6.7520 0
M  V30 264 C 12.5070 31.9760 5.5000 0
M  V30 265 C 13.0750 30.7630 5.3730 0
M  V30 266 C 13.8260 30.2390 6.4160 0
M  V30 267 H 14.2450 29.3880 6.3480 0
M  V30 268 C 13.9390 31.0220 7.5850 0
M  V30 269 H 14.5320 30.7130 8.2600 0
M  V30 270 C 13.2620 32.1860 7.8200 0
M  V30 271 C 13.4710 32.9870 9.0940 0
M  V30 272 C 14.7660 33.1480 9.5520 0
M  V30 273 H 15.4770 32.7640 9.0540 0
M  V30 274 C 15.0630 33.8240 10.6670 0
M  V30 275 H 15.9670 33.9540 10.9340 0
M  V30 276 C 14.0400 34.3260 11.4070 0
M  V30 277 C 12.7510 34.1830 10.9880 0
M  V30 278 H 12.0440 34.5760 11.4860 0
M  V30 279 C 12.4700 33.4710 9.8630 0
M  V30 280 H 11.5660 33.3100 9.6140 0
M  V30 281 C 14.2360 36.2640 12.6520 0
M  V30 282 H 13.8770 36.6670 11.8690 0
M  V30 283 C 15.1860 37.1280 16.0190 0
M  V30 284 H 15.3920 36.6220 16.7990 0
M  V30 285 C 15.2210 38.4980 16.1160 0
M  V30 286 H 15.3890 38.9500 16.9320 0
M  V30 287 C 14.9850 39.1960 14.8750 0
M  V30 288 H 15.0820 40.1410 14.8350 0
M  V30 289 C 14.6150 38.4890 13.7350 0
M  V30 290 H 14.3770 38.9500 12.9370 0
M  V30 291 C 14.5990 37.1150 13.7740 0
M  V30 292 C 10.9320 31.2590 3.5290 0
M  V30 293 C 9.5650 31.2950 3.1500 0
M  V30 294 C 9.0170 30.1310 2.5800 0
M  V30 295 H 8.1210 30.1220 2.2700 0
M  V30 296 C 9.8040 29.0170 2.4860 0
M  V30 297 H 9.4540 28.2650 2.0240 0
M  V30 298 C 11.1260 28.9090 3.0460 0
M  V30 299 C 11.6100 30.0690 3.5800 0
M  V30 300 C 11.8780 27.6690 2.9700 0
M  V30 301 C 12.6650 27.1680 3.9770 0
M  V30 302 H 12.7050 27.6380 4.8000 0
M  V30 303 C 13.3960 26.0080 3.8430 0
M  V30 304 H 13.9390 25.7220 4.5690 0
M  V30 305 C 13.3600 25.2390 2.6560 0
M  V30 306 C 12.5490 25.7090 1.6310 0
M  V30 307 H 12.4810 25.2120 0.8230 0
M  V30 308 C 11.8210 26.9170 1.7790 0
M  V30 309 H 11.2810 27.2260 1.0570 0
M  V30 310 C 15.3640 24.1460 2.6700 0
M  V30 311 H 15.7500 24.9650 2.9630 0
M  V30 312 C 16.2160 22.9820 2.4390 0
M  V30 313 C 17.6060 23.1120 2.5950 0
M  V30 314 H 18.0170 23.9130 2.8870 0
M  V30 315 C 18.3470 21.9480 2.2810 0
M  V30 316 H 19.2940 21.9750 2.3670 0
M  V30 317 C 17.7750 20.8110 1.8620 0
M  V30 318 H 18.3140 20.0680 1.6170 0
M  V30 319 C 16.3830 20.7220 1.7900 0
M  V30 320 H 15.9530 19.9030 1.5910 0
M  V30 321 C 2.6390 19.9880 13.9800 0
M  V30 322 H 2.6640 19.5580 13.1320 0
M  V30 323 C 2.3450 24.2490 9.1480 0
M  V30 324 C 1.6550 25.4220 9.1080 0
M  V30 325 H 1.2350 25.7040 9.9130 0
M  V30 326 C 1.5080 26.2550 7.9790 0
M  V30 327 H 1.1260 27.1230 8.0290 0
M  V30 328 C 1.9720 25.7040 6.7740 0
M  V30 329 C 2.5230 24.4780 6.7840 0
M  V30 330 C 2.8180 23.7390 7.9140 0
M  V30 331 C 4.6730 22.5210 7.0730 0
M  V30 332 C 5.8420 21.9890 7.4630 0
M  V30 333 H 5.9320 21.6350 8.3400 0
M  V30 334 C 6.9570 21.9570 6.5610 0
M  V30 335 H 7.7340 21.4650 6.8020 0
M  V30 336 C 6.9280 22.6240 5.3300 0
M  V30 337 C 5.7570 23.2730 4.9620 0
M  V30 338 C 4.5720 23.0810 5.7850 0
M  V30 339 C 8.1580 22.6470 4.4860 0
M  V30 340 C 8.9160 21.4690 4.3340 0
M  V30 341 H 8.6790 20.7080 4.8500 0
M  V30 342 C 9.9900 21.3750 3.4680 0
M  V30 343 H 10.4810 20.5650 3.3670 0
M  V30 344 C 10.3140 22.5260 2.7500 0
M  V30 345 C 9.6420 23.7030 2.9190 0
M  V30 346 H 9.9220 24.4690 2.4320 0
M  V30 347 C 8.5590 23.8060 3.7820 0
M  V30 348 H 8.1030 24.6300 3.9010 0
M  V30 349 C 11.0910 22.8660 0.5990 0
M  V30 350 H 10.1930 23.1080 0.4010 0
M  V30 351 C 12.0890 22.9240 -0.4330 0
M  V30 352 C 11.8100 23.4880 -1.6850 0
M  V30 353 H 10.9280 23.7610 -1.9050 0
M  V30 354 C 12.8430 23.6400 -2.6050 0
M  V30 355 H 12.6790 23.9990 -3.4680 0
M  V30 356 C 14.0700 23.2690 -2.2370 0
M  V30 357 H 14.7950 23.4210 -2.8290 0
M  V30 358 C 14.3100 22.6780 -1.0210 0
M  V30 359 H 15.1840 22.3600 -0.8230 0
M  V30 360 C 4.8860 25.2070 3.8040 0
M  V30 361 C 3.6440 25.2120 4.5220 0
M  V30 362 C 3.0230 26.4020 4.7200 0
M  V30 363 C 3.4010 27.6020 4.0670 0
M  V30 364 C 4.5560 27.4590 3.2690 0
M  V30 365 H 4.8350 28.2200 2.7790 0
M  V30 366 C 5.3150 26.3170 3.1320 0
M  V30 367 H 6.1010 26.3040 2.5980 0
M  V30 368 C 2.6450 28.8060 4.1610 0
M  V30 369 C 2.2140 29.4020 5.3700 0
M  V30 370 H 2.4560 28.9850 6.1890 0
M  V30 371 C 1.4980 30.4980 5.4200 0
M  V30 372 H 1.2070 30.8250 6.2610 0
M  V30 373 C 1.1460 31.2060 4.2330 0
M  V30 374 C 1.6040 30.6770 3.0390 0
M  V30 375 H 1.3970 31.1160 2.2190 0
M  V30 376 C 2.3680 29.5050 3.0240 0
M  V30 377 H 2.7040 29.1870 2.1980 0
M  V30 378 C -1.5580 33.5960 4.8540 0
M  V30 379 C -2.7710 33.6810 5.5830 0
M  V30 380 H -3.0580 32.9470 6.1170 0
M  V30 381 C -3.5230 34.8140 5.5250 0
M  V30 382 H -4.3350 34.8720 6.0120 0
M  V30 383 C -3.1100 35.8790 4.7600 0
M  V30 384 H -3.6210 36.6760 4.7130 0
M  V30 385 C -1.8980 35.7360 4.0420 0
M  V30 386 H -1.5950 36.4570 3.5040 0
M  V30 387 C 3.0950 23.8690 11.5300 0
M  V30 388 H 3.5080 24.7190 11.4940 0
M  V30 389 C 2.4430 23.3580 10.4110 0
M  V30 390 C 1.8370 22.1090 10.4690 0
M  V30 391 H 1.3920 21.7650 9.7040 0
M  V30 392 C 1.8820 21.3660 11.6420 0
M  V30 393 H 1.4690 20.5110 11.6810 0
M  V30 394 C 2.5340 21.8770 12.7600 0
M  V30 395 C 3.1390 23.1260 12.7060 0
M  V30 396 H 3.5850 23.4700 13.4680 0
M  V30 END ATOM
M  V30 BEGIN BOND
M  V30 1 1   1 227
M  V30 2 1   1  17
M  V30 3 1   1  18
M  V30 4 1   1  33
M  V30 5 1   1 217
M  V30 6 1   1  32
M  V30 7 1   2 213
M  V30 8 1   2  30
M  V30 9 1   2  31
M  V30 10 1   2 214
M  V30 11 1   2  14
M  V30 12 1   2  13
M  V30 13 1   3  66
M  V30 14 1   3  59
M  V30 15 1   3  94
M  V30 16 1   3   8
M  V30 17 1   4 131
M  V30 18 1   4 140
M  V30 19 1   4 163
M  V30 20 1   4  12
M  V30 21 1   5  67
M  V30 22 1   5 101
M  V30 23 1   6  58
M  V30 24 1   6  95
M  V30 25 1   7  65
M  V30 26 1   7  60
M  V30 27 1   9 130
M  V30 28 1   9 164
M  V30 29 1  10 139
M  V30 30 1  10 162
M  V30 31 1  11 132
M  V30 32 1  11 133
M  V30 33 1  13  34
M  V30 34 1  13  42
M  V30 35 1  14  45
M  V30 36 1  14  43
M  V30 37 1  15 200
M  V30 38 1  15  83
M  V30 39 1  15  78
M  V30 40 1  16  85
M  V30 41 1  16 200
M  V30 42 1  16  93
M  V30 43 1  17 112
M  V30 44 1  17 107
M  V30 45 1  18 114
M  V30 46 1  18 121
M  V30 47 1  19  27
M  V30 48 1  19 199
M  V30 49 1  19  20
M  V30 50 1  20  21
M  V30 51 1  20 123
M  V30 52 1  21  23
M  V30 53 1  21  22
M  V30 54 1  23  25
M  V30 55 1  23  24
M  V30 56 1  25  26
M  V30 57 1  25  27
M  V30 58 1  27  28
M  V30 59 1  29 199
M  V30 60 1  29 123
M  V30 61 1  29 196
M  V30 62 1  30  46
M  V30 63 1  30 175
M  V30 64 1  31 180
M  V30 65 1  31 187
M  V30 66 1  32 153
M  V30 67 1  32 160
M  V30 68 1  33 146
M  V30 69 1  33 151
M  V30 70 1  34  35
M  V30 71 1  34  36
M  V30 72 1  36  37
M  V30 73 1  36  38
M  V30 74 1  38  40
M  V30 75 1  38  39
M  V30 76 1  40  42
M  V30 77 1  40  41
M  V30 78 1  42  43
M  V30 79 1  43  44
M  V30 80 1  45  55
M  V30 81 1  45  48
M  V30 82 1  46  47
M  V30 83 1  46 180
M  V30 84 1  48  50
M  V30 85 1  48  49
M  V30 86 1  50  52
M  V30 87 1  50  51
M  V30 88 1  52  57
M  V30 89 1  52  53
M  V30 90 1  53  54
M  V30 91 1  53  55
M  V30 92 1  55  56
M  V30 93 1  57  63
M  V30 94 1  57  58
M  V30 95 1  58  59
M  V30 96 1  59  60
M  V30 97 1  60  61
M  V30 98 1  61  62
M  V30 99 1  61  63
M  V30 100 1  63  64
M  V30 101 1  65  72
M  V30 102 1  65  66
M  V30 103 1  66  67
M  V30 104 1  67  68
M  V30 105 1  68  70
M  V30 106 1  68  69
M  V30 107 1  70  71
M  V30 108 1  70  72
M  V30 109 1  72  73
M  V30 110 1  73  81
M  V30 111 1  73  74
M  V30 112 1  74  76
M  V30 113 1  74  75
M  V30 114 1  76  78
M  V30 115 1  76  77
M  V30 116 1  78  79
M  V30 117 1  79  80
M  V30 118 1  79  81
M  V30 119 1  81  82
M  V30 120 1  83  93
M  V30 121 1  83  84
M  V30 122 1  85  86
M  V30 123 1  85  87
M  V30 124 1  87  88
M  V30 125 1  87  89
M  V30 126 1  89  90
M  V30 127 1  89  91
M  V30 128 1  91  93
M  V30 129 1  91  92
M  V30 130 1  94 101
M  V30 131 1  94  95
M  V30 132 1  95  96
M  V30 133 1  96  98
M  V30 134 1  96  97
M  V30 135 1  98 100
M  V30 136 1  98  99
M  V30 137 1 100 101
M  V30 138 1 100 102
M  V30 139 1 102 103
M  V30 140 1 102 110
M  V30 141 1 103 104
M  V30 142 1 103 105
M  V30 143 1 105 106
M  V30 144 1 105 107
M  V30 145 1 107 108
M  V30 146 1 108 110
M  V30 147 1 108 109
M  V30 148 1 110 111
M  V30 149 1 112 113
M  V30 150 1 112 114
M  V30 151 1 114 115
M  V30 152 1 115 116
M  V30 153 1 115 117
M  V30 154 1 117 118
M  V30 155 1 117 119
M  V30 156 1 119 121
M  V30 157 1 119 120
M  V30 158 1 121 122
M  V30 159 1 123 124
M  V30 160 1 125 191
M  V30 161 1 125 126
M  V30 162 1 125 132
M  V30 163 1 126 127
M  V30 164 1 126 128
M  V30 165 1 128 129
M  V30 166 1 128 130
M  V30 167 1 130 131
M  V30 168 1 131 132
M  V30 169 1 133 134
M  V30 170 1 133 140
M  V30 171 1 134 135
M  V30 172 1 134 136
M  V30 173 1 136 137
M  V30 174 1 136 138
M  V30 175 1 138 139
M  V30 176 1 138 141
M  V30 177 1 139 140
M  V30 178 1 141 142
M  V30 179 1 141 149
M  V30 180 1 142 143
M  V30 181 1 142 144
M  V30 182 1 144 145
M  V30 183 1 144 146
M  V30 184 1 146 147
M  V30 185 1 147 149
M  V30 186 1 147 148
M  V30 187 1 149 150
M  V30 188 1 151 152
M  V30 189 1 151 153
M  V30 190 1 153 154
M  V30 191 1 154 155
M  V30 192 1 154 156
M  V30 193 1 156 158
M  V30 194 1 156 157
M  V30 195 1 158 160
M  V30 196 1 158 159
M  V30 197 1 160 161
M  V30 198 1 162 163
M  V30 199 1 162 168
M  V30 200 1 163 164
M  V30 201 1 164 165
M  V30 202 1 165 170
M  V30 203 1 165 166
M  V30 204 1 166 168
M  V30 205 1 166 167
M  V30 206 1 168 169
M  V30 207 1 170 171
M  V30 208 1 170 178
M  V30 209 1 171 172
M  V30 210 1 171 173
M  V30 211 1 173 174
M  V30 212 1 173 175
M  V30 213 1 175 176
M  V30 214 1 176 178
M  V30 215 1 176 177
M  V30 216 1 178 179
M  V30 217 1 180 181
M  V30 218 1 181 182
M  V30 219 1 181 183
M  V30 220 1 183 184
M  V30 221 1 183 185
M  V30 222 1 185 186
M  V30 223 1 185 187
M  V30 224 1 187 188
M  V30 225 1 189 197
M  V30 226 1 189 190
M  V30 227 1 189 191
M  V30 228 1 191 192
M  V30 229 1 192 194
M  V30 230 1 192 193
M  V30 231 1 194 196
M  V30 232 1 194 195
M  V30 233 1 196 197
M  V30 234 1 197 198
M  V30 235 1 199 230
M  V30 236 1 199 231
M  V30 237 1 199 216
M  V30 238 1 199 215
M  V30 239 1 200 211
M  V30 240 1 200 212
M  V30 241 1 200 229
M  V30 242 1 200 228
M  V30 243 1 201 206
M  V30 244 1 201 292
M  V30 245 1 201 257
M  V30 246 1 201 264
M  V30 247 1 202 210
M  V30 248 1 202 361
M  V30 249 1 202 338
M  V30 250 1 202 329
M  V30 251 1 203 299
M  V30 252 1 203 265
M  V30 253 1 204 293
M  V30 254 1 204 256
M  V30 255 1 205 258
M  V30 256 1 205 263
M  V30 257 1 207 362
M  V30 258 1 207 328
M  V30 259 1 208 360
M  V30 260 1 208 337
M  V30 261 1 209 331
M  V30 262 1 209 330
M  V30 263 1 211 240
M  V30 264 1 211 232
M  V30 265 1 212 241
M  V30 266 1 212 243
M  V30 267 1 213 276
M  V30 268 1 213 281
M  V30 269 1 214 291
M  V30 270 1 214 283
M  V30 271 1 215 305
M  V30 272 1 215 310
M  V30 273 1 216 319
M  V30 274 1 216 312
M  V30 275 1 217 218
M  V30 276 1 217 225
M  V30 277 1 218 321
M  V30 278 1 218 219
M  V30 279 1 219 220
M  V30 280 1 219 221
M  V30 281 1 221 222
M  V30 282 1 221 223
M  V30 283 1 223 225
M  V30 284 1 223 224
M  V30 285 1 225 226
M  V30 286 1 227 394
M  V30 287 1 227 321
M  V30 288 1 228 373
M  V30 289 1 228 244
M  V30 290 1 229 385
M  V30 291 1 229 378
M  V30 292 1 230 358
M  V30 293 1 230 351
M  V30 294 1 231 349
M  V30 295 1 231 344
M  V30 296 1 232 234
M  V30 297 1 232 233
M  V30 298 1 234 236
M  V30 299 1 234 235
M  V30 300 1 236 237
M  V30 301 1 236 238
M  V30 302 1 238 239
M  V30 303 1 238 240
M  V30 304 1 240 241
M  V30 305 1 241 242
M  V30 306 1 243 246
M  V30 307 1 243 253
M  V30 308 1 244 378
M  V30 309 1 244 245
M  V30 310 1 246 247
M  V30 311 1 246 248
M  V30 312 1 248 249
M  V30 313 1 248 250
M  V30 314 1 250 251
M  V30 315 1 250 255
M  V30 316 1 251 253
M  V30 317 1 251 252
M  V30 318 1 253 254
M  V30 319 1 255 256
M  V30 320 1 255 261
M  V30 321 1 256 257
M  V30 322 1 257 258
M  V30 323 1 258 259
M  V30 324 1 259 261
M  V30 325 1 259 260
M  V30 326 1 261 262
M  V30 327 1 263 264
M  V30 328 1 263 270
M  V30 329 1 264 265
M  V30 330 1 265 266
M  V30 331 1 266 267
M  V30 332 1 266 268
M  V30 333 1 268 270
M  V30 334 1 268 269
M  V30 335 1 270 271
M  V30 336 1 271 272
M  V30 337 1 271 279
M  V30 338 1 272 273
M  V30 339 1 272 274
M  V30 340 1 274 275
M  V30 341 1 274 276
M  V30 342 1 276 277
M  V30 343 1 277 279
M  V30 344 1 277 278
M  V30 345 1 279 280
M  V30 346 1 281 282
M  V30 347 1 281 291
M  V30 348 1 283 285
M  V30 349 1 283 284
M  V30 350 1 285 287
M  V30 351 1 285 286
M  V30 352 1 287 289
M  V30 353 1 287 288
M  V30 354 1 289 290
M  V30 355 1 289 291
M  V30 356 1 292 293
M  V30 357 1 292 299
M  V30 358 1 293 294
M  V30 359 1 294 295
M  V30 360 1 294 296
M  V30 361 1 296 297
M  V30 362 1 296 298
M  V30 363 1 298 300
M  V30 364 1 298 299
M  V30 365 1 300 308
M  V30 366 1 300 301
M  V30 367 1 301 303
M  V30 368 1 301 302
M  V30 369 1 303 305
M  V30 370 1 303 304
M  V30 371 1 305 306
M  V30 372 1 306 307
M  V30 373 1 306 308
M  V30 374 1 308 309
M  V30 375 1 310 312
M  V30 376 1 310 311
M  V30 377 1 312 313
M  V30 378 1 313 315
M  V30 379 1 313 314
M  V30 380 1 315 317
M  V30 381 1 315 316
M  V30 382 1 317 318
M  V30 383 1 317 319
M  V30 384 1 319 320
M  V30 385 1 321 322
M  V30 386 1 323 330
M  V30 387 1 323 324
M  V30 388 1 323 389
M  V30 389 1 324 326
M  V30 390 1 324 325
M  V30 391 1 326 328
M  V30 392 1 326 327
M  V30 393 1 328 329
M  V30 394 1 329 330
M  V30 395 1 331 338
M  V30 396 1 331 332
M  V30 397 1 332 334
M  V30 398 1 332 333
M  V30 399 1 334 336
M  V30 400 1 334 335
M  V30 401 1 336 339
M  V30 402 1 336 337
M  V30 403 1 337 338
M  V30 404 1 339 347
M  V30 405 1 339 340
M  V30 406 1 340 342
M  V30 407 1 340 341
M  V30 408 1 342 344
M  V30 409 1 342 343
M  V30 410 1 344 345
M  V30 411 1 345 346
M  V30 412 1 345 347
M  V30 413 1 347 348
M  V30 414 1 349 351
M  V30 415 1 349 350
M  V30 416 1 351 352
M  V30 417 1 352 354
M  V30 418 1 352 353
M  V30 419 1 354 355
M  V30 420 1 354 356
M  V30 421 1 356 357
M  V30 422 1 356 358
M  V30 423 1 358 359
M  V30 424 1 360 366
M  V30 425 1 360 361
M  V30 426 1 361 362
M  V30 427 1 362 363
M  V30 428 1 363 364
M  V30 429 1 363 368
M  V30 430 1 364 365
M  V30 431 1 364 366
M  V30 432 1 366 367
M  V30 433 1 368 376
M  V30 434 1 368 369
M  V30 435 1 369 371
M  V30 436 1 369 370
M  V30 437 1 371 373
M  V30 438 1 371 372
M  V30 439 1 373 374
M  V30 440 1 374 375
M  V30 441 1 374 376
M  V30 442 1 376 377
M  V30 443 1 378 379
M  V30 444 1 379 381
M  V30 445 1 379 380
M  V30 446 1 381 383
M  V30 447 1 381 382
M  V30 448 1 383 385
M  V30 449 1 383 384
M  V30 450 1 385 386
M  V30 451 1 387 389
M  V30 452 1 387 388
M  V30 453 1 387 395
M  V30 454 1 389 390
M  V30 455 1 390 391
M  V30 456 1 390 392
M  V30 457 1 392 393
M  V30 458 1 392 394
M  V30 459 1 394 395
M  V30 460 1 395 396
M  V30 461 1 M   END
M  V30 END BOND
M  V30 END CTAB

