     RDKit          3D

  0  0  0  0  0  0  0  0  0  0999 V3000
M  V30 BEGIN CTAB
M  V30 COUNTS 396 460 0 0 0
M  V30 BEGIN ATOM
M  V30 1 Zn 19.4310 21.6020 22.4970 0
M  V30 2 Zn 22.6370 10.4270 8.8210 0
M  V30 3 Zn 7.7940 8.9400 17.8050 0
M  V30 4 Zn 10.7260 23.3210 7.4270 0
M  V30 5 P 11.6950 12.4360 8.0800 0
M  V30 6 O 9.9320 12.3170 10.4860 0
M  V30 7 O 12.2580 15.2980 7.4780 0
M  V30 8 O 14.2990 11.1180 8.8140 0
M  V30 9 O 11.0410 11.7870 6.9090 0
M  V30 10 N 5.7040 9.1320 17.6660 0
M  V30 11 N 7.4670 9.7510 15.7560 0
M  V30 12 N 11.4330 21.3660 6.7890 0
M  V30 13 N 11.7560 23.6630 5.5530 0
M  V30 14 N 20.4890 9.9510 8.9160 0
M  V30 15 N 22.7030 8.2630 9.0960 0
M  V30 16 C 4.8170 8.7880 18.6110 0
M  V30 17 H 5.1450 8.5200 19.4610 0
M  V30 18 C 3.4500 8.8110 18.4090 0
M  V30 19 H 2.8570 8.5350 19.0990 0
M  V30 20 C 2.9660 9.2350 17.1970 0
M  V30 21 H 2.0290 9.2760 17.0400 0
M  V30 22 C 3.8570 9.6070 16.2010 0
M  V30 23 H 3.5490 9.9050 15.3530 0
M  V30 24 C 5.2100 9.5320 16.4810 0
M  V30 25 C 6.2240 9.8670 15.4730 0
M  V30 26 H 5.9570 10.1670 14.6130 0
M  V30 27 C 8.3740 10.1270 14.7450 0
M  V30 28 C 8.9410 9.0440 14.1140 0
M  V30 29 H 8.6960 8.1630 14.3640 0
M  V30 30 C 9.8640 9.2490 13.1120 0
M  V30 31 H 10.2430 8.4950 12.6780 0
M  V30 32 C 10.2590 10.5130 12.7210 0
M  V30 33 C 9.6630 11.5920 13.3590 0
M  V30 34 H 9.9130 12.4780 13.1170 0
M  V30 35 C 8.7110 11.4060 14.3420 0
M  V30 36 H 8.2860 12.1550 14.7410 0
M  V30 37 C 11.2530 10.6760 11.6320 0
M  V30 38 C 11.0350 11.4940 10.5250 0
M  V30 39 C 12.0270 11.5270 9.5390 0
M  V30 40 C 13.2440 10.8710 9.6860 0
M  V30 41 C 13.4550 10.0480 10.7840 0
M  V30 42 H 14.2690 9.5710 10.8860 0
M  V30 43 C 12.4460 9.9510 11.7280 0
M  V30 44 H 12.5690 9.3660 12.4700 0
M  V30 45 C 10.0740 13.5960 9.9330 0
M  V30 46 C 9.4230 14.7030 10.4740 0
M  V30 47 H 8.7910 14.5760 11.1720 0
M  V30 48 C 9.6810 15.9770 10.0170 0
M  V30 49 H 9.2200 16.7160 10.3950 0
M  V30 50 C 10.6180 16.1910 8.9970 0
M  V30 51 C 11.2670 15.0930 8.4350 0
M  V30 52 C 10.9640 13.8050 8.8800 0
M  V30 53 C 10.8510 17.5950 8.5580 0
M  V30 54 C 9.7910 18.4880 8.4200 0
M  V30 55 H 8.9210 18.2210 8.6970 0
M  V30 56 C 9.9720 19.7430 7.8840 0
M  V30 57 H 9.2320 20.3330 7.7950 0
M  V30 58 C 11.2390 20.1480 7.4810 0
M  V30 59 C 12.3250 19.3110 7.6890 0
M  V30 60 H 13.2030 19.5970 7.4660 0
M  V30 61 C 12.1140 18.0460 8.2210 0
M  V30 62 H 12.8590 17.4710 8.3590 0
M  V30 63 C 12.1200 21.3150 5.6880 0
M  V30 64 H 12.4740 20.4990 5.3580 0
M  V30 65 C 12.3190 22.5840 4.9750 0
M  V30 66 C 13.0310 22.6590 3.7960 0
M  V30 67 H 13.4440 21.8840 3.4280 0
M  V30 68 C 13.1310 23.8910 3.1580 0
M  V30 69 H 13.5950 23.9680 2.3320 0
M  V30 70 C 12.5480 25.0020 3.7390 0
M  V30 71 H 12.6010 25.8540 3.3220 0
M  V30 72 C 11.8880 24.8440 4.9420 0
M  V30 73 H 11.5110 25.6110 5.3550 0
M  V30 74 C 13.3870 14.4890 7.5260 0
M  V30 75 C 14.6470 15.0280 7.3310 0
M  V30 76 H 14.7510 15.9220 7.0340 0
M  V30 77 C 15.7530 14.2280 7.5800 0
M  V30 78 H 16.6180 14.5930 7.4260 0
M  V30 79 C 15.6580 12.9170 8.0500 0
M  V30 80 C 14.3880 12.3690 8.2210 0
M  V30 81 C 13.2770 13.1500 7.9200 0
M  V30 82 C 16.9010 12.1640 8.3530 0
M  V30 83 C 18.0070 12.2710 7.5110 0
M  V30 84 H 17.9580 12.8470 6.7580 0
M  V30 85 C 19.1670 11.5590 7.7400 0
M  V30 86 H 19.8990 11.6550 7.1430 0
M  V30 87 C 19.2830 10.7090 8.8320 0
M  V30 88 C 18.1980 10.6160 9.6950 0
M  V30 89 H 18.2610 10.0590 10.4650 0
M  V30 90 C 17.0240 11.3180 9.4540 0
M  V30 91 H 16.2910 11.2180 10.0510 0
M  V30 92 C 20.3760 8.7420 9.2710 0
M  V30 93 H 19.5000 8.4120 9.4340 0
M  V30 94 C 21.4870 7.8070 9.4510 0
M  V30 95 C 21.2860 6.5280 9.9570 0
M  V30 96 H 20.4200 6.2320 10.2100 0
M  V30 97 C 22.3880 5.6960 10.0800 0
M  V30 98 H 22.2880 4.8190 10.4320 0
M  V30 99 C 23.6340 6.1520 9.6830 0
M  V30 100 H 24.4000 5.5900 9.7450 0
M  V30 101 C 23.7360 7.4350 9.1930 0
M  V30 102 H 24.5880 7.7470 8.9110 0
M  V30 103 P 18.5830 11.1150 19.0380 0
M  V30 104 O 20.2600 11.7640 16.6830 0
M  V30 105 O 17.8120 13.6610 20.3610 0
M  V30 106 O 16.0530 9.8390 17.9910 0
M  V30 107 O 19.2920 10.2580 20.0130 0
M  V30 108 N 24.8310 10.6710 9.0210 0
M  V30 109 N 22.9590 10.6430 10.9580 0
M  V30 110 N 18.8420 19.4970 22.7380 0
M  V30 111 N 18.4780 21.5710 24.4700 0
M  V30 112 N 9.8190 8.4910 17.5760 0
M  V30 113 N 7.6270 6.9470 17.0230 0
M  V30 114 C 25.7770 10.6850 8.0770 0
M  V30 115 H 25.4990 10.6390 7.1690 0
M  V30 116 C 27.1330 10.7500 8.3290 0
M  V30 117 H 27.7610 10.7560 7.6190 0
M  V30 118 C 27.5460 10.8160 9.6380 0
M  V30 119 H 28.4710 10.8640 9.8490 0
M  V30 120 C 26.5930 10.8110 10.6450 0
M  V30 121 H 26.8550 10.8610 11.5570 0
M  V30 122 C 25.2540 10.7320 10.3000 0
M  V30 123 C 24.1900 10.6950 11.3040 0
M  V30 124 H 24.4170 10.7040 12.2270 0
M  V30 125 C 21.9600 10.5830 11.9720 0
M  V30 126 C 22.0910 9.6900 13.0190 0
M  V30 127 H 22.8180 9.0800 13.0250 0
M  V30 128 C 21.1790 9.6810 14.0570 0
M  V30 129 H 21.3150 9.0780 14.7780 0
M  V30 130 C 20.0750 10.5130 14.0840 0
M  V30 131 C 19.9270 11.3780 13.0040 0
M  V30 132 H 19.1710 11.9500 12.9670 0
M  V30 133 C 20.8580 11.4150 11.9780 0
M  V30 134 H 20.7340 12.0290 11.2620 0
M  V30 135 C 19.0690 10.3640 15.1670 0
M  V30 136 C 19.2410 10.8810 16.4480 0
M  V30 137 C 18.2810 10.5780 17.4110 0
M  V30 138 C 17.1120 9.8900 17.1040 0
M  V30 139 C 16.9270 9.3880 15.8340 0
M  V30 140 H 16.1430 8.9040 15.6070 0
M  V30 141 C 17.9300 9.6110 14.8990 0
M  V30 142 H 17.8320 9.2330 14.0350 0
M  V30 143 C 20.0550 12.8340 17.5400 0
M  V30 144 C 20.6280 14.0750 17.3110 0
M  V30 145 H 21.1810 14.2160 16.5510 0
M  V30 146 C 20.3840 15.1170 18.1960 0
M  V30 147 H 20.8510 15.9350 18.0820 0
M  V30 148 C 19.4820 15.0000 19.2480 0
M  V30 149 C 18.8570 13.7730 19.4590 0
M  V30 150 C 19.2150 12.6890 18.6530 0
M  V30 151 C 19.2810 16.1950 20.1210 0
M  V30 152 C 20.3860 16.9350 20.5540 0
M  V30 153 H 21.2510 16.6840 20.2570 0
M  V30 154 C 20.2610 18.0180 21.3990 0
M  V30 155 H 21.0320 18.5040 21.6700 0
M  V30 156 C 18.9960 18.3950 21.8560 0
M  V30 157 C 17.8830 17.6930 21.4050 0
M  V30 158 H 17.0130 17.9600 21.6790 0
M  V30 159 C 18.0330 16.6050 20.5600 0
M  V30 160 H 17.2620 16.1310 20.2720 0
M  V30 161 C 18.2280 19.3060 23.8270 0
M  V30 162 H 17.9100 18.4300 24.0150 0
M  V30 163 C 17.9820 20.3660 24.8100 0
M  V30 164 C 17.2570 20.1480 25.9740 0
M  V30 165 H 16.9420 19.2830 26.2090 0
M  V30 166 C 17.0130 21.2500 26.7810 0
M  V30 167 H 16.5020 21.1420 27.5760 0
M  V30 168 C 17.4930 22.4910 26.4560 0
M  V30 169 H 17.3270 23.2420 27.0110 0
M  V30 170 C 18.2280 22.6070 25.2890 0
M  V30 171 H 18.5750 23.4620 25.0560 0
M  V30 172 C 16.7550 12.8200 20.0850 0
M  V30 173 C 15.4650 13.1640 20.4310 0
M  V30 174 H 15.2970 13.9390 20.9510 0
M  V30 175 C 14.4200 12.3590 20.0070 0
M  V30 176 H 13.5380 12.5890 20.2770 0
M  V30 177 C 14.5890 11.2290 19.2090 0
M  V30 178 C 15.8870 10.8760 18.8720 0
M  V30 179 C 16.9490 11.6390 19.3540 0
M  V30 180 C 13.3730 10.5410 18.6980 0
M  V30 181 C 12.2530 10.4250 19.4890 0
M  V30 182 H 12.2590 10.8250 20.3520 0
M  V30 183 C 11.1220 9.7510 19.0770 0
M  V30 184 H 10.3740 9.6910 19.6590 0
M  V30 185 C 11.0570 9.1560 17.8350 0
M  V30 186 C 12.1670 9.3090 16.9890 0
M  V30 187 H 12.1470 8.9420 16.1130 0
M  V30 188 C 13.2940 9.9970 17.4230 0
M  V30 189 H 14.0310 10.0920 16.8320 0
M  V30 190 C 9.9540 7.3790 16.9410 0
M  V30 191 H 10.8290 7.0980 16.7020 0
M  V30 192 C 8.8230 6.5280 16.5740 0
M  V30 193 C 8.9890 5.3520 15.8550 0
M  V30 194 H 9.8500 5.1050 15.5370 0
M  V30 195 C 7.8910 4.5340 15.6000 0
M  V30 196 H 7.9820 3.7280 15.1010 0
M  V30 197 C 6.6510 4.9330 16.0990 0
M  V30 198 H 5.8760 4.3970 15.9750 0
M  V30 199 C 6.5850 6.1380 16.7820 0
M  V30 200 H 5.7330 6.4120 17.1060 0
M  V30 201 P 20.8220 20.9430 11.4610 0
M  V30 202 O 21.1790 20.2640 14.3480 0
M  V30 203 O 20.6350 18.3710 9.9450 0
M  V30 204 O 18.1740 22.3750 11.1960 0
M  V30 205 O 21.9370 21.7700 10.9430 0
M  V30 206 N 21.3150 21.3190 23.3030 0
M  V30 207 N 20.6540 21.2730 20.7100 0
M  V30 208 N 22.2570 12.4940 8.2630 0
M  V30 209 N 22.8770 10.3690 6.6840 0
M  V30 210 N 12.5440 23.8910 8.4290 0
M  V30 211 N 10.3490 25.4210 7.7190 0
M  V30 212 C 21.6220 21.3240 24.6060 0
M  V30 213 H 20.9140 21.4120 25.2350 0
M  V30 214 C 22.9160 21.2080 25.0870 0
M  V30 215 H 23.0930 21.2230 26.0200 0
M  V30 216 C 23.9210 21.0640 24.1910 0
M  V30 217 H 24.8160 20.9670 24.4900 0
M  V30 218 C 23.6400 21.0640 22.8220 0
M  V30 219 H 24.3350 20.9780 22.1820 0
M  V30 220 C 22.3230 21.1940 22.4250 0
M  V30 221 C 21.8990 21.1890 21.0200 0
M  V30 222 H 22.5510 21.1210 20.3350 0
M  V30 223 C 20.3150 21.2500 19.3360 0
M  V30 224 C 21.1980 20.7660 18.3790 0
M  V30 225 H 22.0100 20.3530 18.6500 0
M  V30 226 C 20.8930 20.8820 17.0350 0
M  V30 227 H 21.5040 20.5320 16.3950 0
M  V30 228 C 19.7320 21.4870 16.5890 0
M  V30 229 C 18.8470 21.9290 17.5670 0
M  V30 230 H 18.0280 22.3300 17.3000 0
M  V30 231 C 19.1270 21.8030 18.9120 0
M  V30 232 H 18.4910 22.1010 19.5540 0
M  V30 233 C 19.4450 21.7100 15.1430 0
M  V30 234 C 20.1640 21.1660 14.0810 0
M  V30 235 C 19.8030 21.4920 12.7660 0
M  V30 236 C 18.6620 22.2450 12.4740 0
M  V30 237 C 17.9410 22.7750 13.5420 0
M  V30 238 H 17.1720 23.3090 13.3810 0
M  V30 239 C 18.3470 22.5240 14.8360 0
M  V30 240 H 17.8630 22.9190 15.5500 0
M  V30 241 C 21.4380 19.2130 13.4610 0
M  V30 242 C 21.8270 17.9760 13.9270 0
M  V30 243 H 22.0600 17.8580 14.8420 0
M  V30 244 C 21.8760 16.9070 13.0580 0
M  V30 245 H 22.1620 16.0610 13.3860 0
M  V30 246 C 21.5220 17.0180 11.7100 0
M  V30 247 C 21.1080 18.2550 11.2350 0
M  V30 248 C 21.1400 19.3480 12.1040 0
M  V30 249 C 21.6990 15.8190 10.8380 0
M  V30 250 C 22.7850 14.9680 10.9760 0
M  V30 251 H 23.4230 15.1510 11.6580 0
M  V30 252 C 22.9790 13.8700 10.1640 0
M  V30 253 H 23.7390 13.3140 10.2870 0
M  V30 254 C 22.0590 13.5820 9.1630 0
M  V30 255 C 20.9450 14.4100 9.0420 0
M  V30 256 H 20.2890 14.2110 8.3830 0
M  V30 257 C 20.7730 15.5120 9.8630 0
M  V30 258 H 20.0060 16.0610 9.7540 0
M  V30 259 C 22.4040 12.6710 7.0180 0
M  V30 260 H 22.2790 13.5390 6.6580 0
M  V30 261 C 22.7580 11.5730 6.1120 0
M  V30 262 C 23.0310 11.8060 4.7710 0
M  V30 263 H 22.9000 12.6650 4.3880 0
M  V30 264 C 23.4960 10.7500 3.9980 0
M  V30 265 H 23.7060 10.8770 3.0790 0
M  V30 266 C 23.6520 9.5040 4.5990 0
M  V30 267 H 23.9890 8.7690 4.1060 0
M  V30 268 C 23.3110 9.3600 5.9170 0
M  V30 269 H 23.3850 8.4980 6.3060 0
M  V30 270 C 19.5790 19.2460 9.7280 0
M  V30 271 C 18.5570 18.9200 8.8470 0
M  V30 272 H 18.5950 18.1160 8.3440 0
M  V30 273 C 17.4800 19.7800 8.7050 0
M  V30 274 H 16.8000 19.5620 8.0780 0
M  V30 275 C 17.3550 20.9610 9.4480 0
M  V30 276 C 18.3630 21.2820 10.3630 0
M  V30 277 C 19.4830 20.4450 10.4410 0
M  V30 278 C 16.1430 21.7980 9.2170 0
M  V30 279 C 15.6400 21.9800 7.9290 0
M  V30 280 H 16.1180 21.6220 7.1890 0
M  V30 281 C 14.4590 22.6680 7.7130 0
M  V30 282 H 14.1300 22.7590 6.8250 0
M  V30 283 C 13.7520 23.2210 8.7590 0
M  V30 284 C 14.2590 23.0770 10.0380 0
M  V30 285 H 13.7940 23.4570 10.7730 0
M  V30 286 C 15.4380 22.3800 10.2600 0
M  V30 287 H 15.7710 22.3010 11.1470 0
M  V30 288 C 12.5280 25.1560 8.6480 0
M  V30 289 H 13.2820 25.5490 9.0760 0
M  V30 290 C 11.4100 26.0250 8.2780 0
M  V30 291 C 11.4870 27.4150 8.3920 0
M  V30 292 H 12.2270 27.8210 8.8300 0
M  V30 293 C 10.4700 28.2060 7.8540 0
M  V30 294 H 10.5150 29.1550 7.9100 0
M  V30 295 C 9.3950 27.5920 7.2430 0
M  V30 296 H 8.6890 28.1010 6.8610 0
M  V30 297 C 9.3830 26.2160 7.2070 0
M  V30 298 H 8.6440 25.7910 6.7890 0
M  V30 299 P 9.2890 19.9580 18.0330 0
M  V30 300 O 8.9440 19.9990 15.0460 0
M  V30 301 O 9.5410 17.1070 18.8850 0
M  V30 302 O 11.8380 21.3380 18.6740 0
M  V30 303 O 8.1340 20.5890 18.7100 0
M  V30 304 N 8.6970 23.2120 6.5850 0
M  V30 305 N 9.5650 22.6260 9.1720 0
M  V30 306 N 8.0370 10.8670 18.9210 0
M  V30 307 N 7.6780 8.3840 19.9640 0
M  V30 308 N 17.5170 22.3150 21.6460 0
M  V30 309 N 19.6570 23.7280 22.6050 0
M  V30 310 C 8.2160 23.4630 5.3630 0
M  V30 311 H 8.8420 23.5910 4.6590 0
M  V30 312 C 6.8750 23.5470 5.0540 0
M  V30 313 H 6.5940 23.7210 4.1620 0
M  V30 314 C 5.9520 23.3750 6.0640 0
M  V30 315 H 5.0210 23.4250 5.8820 0
M  V30 316 C 6.4080 23.1330 7.3520 0
M  V30 317 H 5.7950 23.0280 8.0700 0
M  V30 318 C 7.7880 23.0450 7.5710 0
M  V30 319 C 8.3250 22.7240 8.8950 0
M  V30 320 H 7.7050 22.5820 9.5990 0
M  V30 321 C 9.8260 22.2540 10.5100 0
M  V30 322 C 9.0330 21.3990 11.2590 0
M  V30 323 H 8.3020 20.9500 10.8490 0
M  V30 324 C 9.3050 21.1890 12.6010 0
M  V30 325 H 8.7370 20.6210 13.1040 0
M  V30 326 C 10.3770 21.7890 13.2230 0
M  V30 327 C 11.1930 22.5940 12.4440 0
M  V30 328 H 11.9620 22.9900 12.8380 0
M  V30 329 C 10.9160 22.8400 11.1180 0
M  V30 330 H 11.4800 23.4180 10.6160 0
M  V30 331 C 10.6550 21.6360 14.6820 0
M  V30 332 C 9.9170 20.8450 15.5490 0
M  V30 333 C 10.2740 20.8540 16.9020 0
M  V30 334 C 11.3890 21.5520 17.3740 0
M  V30 335 C 12.1300 22.3380 16.5110 0
M  V30 336 H 12.8770 22.8410 16.8130 0
M  V30 337 C 11.7300 22.3610 15.1940 0
M  V30 338 H 12.2200 22.9100 14.5920 0
M  V30 339 C 8.7630 18.7480 15.6450 0
M  V30 340 C 8.4310 17.6230 14.8930 0
M  V30 341 H 8.2220 17.7120 13.9720 0
M  V30 342 C 8.4040 16.3770 15.4910 0
M  V30 343 H 8.1520 15.6250 14.9670 0
M  V30 344 C 8.7330 16.1670 16.8330 0
M  V30 345 C 9.0660 17.2930 17.6000 0
M  V30 346 C 9.0250 18.5670 17.0080 0
M  V30 347 C 8.6210 14.7820 17.3620 0
M  V30 348 C 7.5890 13.9590 16.9200 0
M  V30 349 H 6.9880 14.2810 16.2610 0
M  V30 350 C 7.4180 12.6800 17.4200 0
M  V30 351 H 6.7140 12.1400 17.0840 0
M  V30 352 C 8.2590 12.1780 18.4090 0
M  V30 353 C 9.3150 12.9820 18.8360 0
M  V30 354 H 9.9210 12.6630 19.4940 0
M  V30 355 C 9.4810 14.2470 18.3040 0
M  V30 356 H 10.2160 14.7740 18.5970 0
M  V30 357 C 7.8660 10.7460 20.1720 0
M  V30 358 H 7.8830 11.5240 20.7210 0
M  V30 359 C 7.6460 9.4390 20.7920 0
M  V30 360 C 7.3130 9.3090 22.1240 0
M  V30 361 H 7.3410 10.0610 22.7020 0
M  V30 362 C 6.9350 8.0630 22.6050 0
M  V30 363 H 6.6640 7.9590 23.5100 0
M  V30 364 C 6.9590 6.9650 21.7510 0
M  V30 365 H 6.7150 6.1010 22.0550 0
M  V30 366 C 7.3460 7.1840 20.4520 0
M  V30 367 H 7.3790 6.4370 19.8640 0
M  V30 368 C 10.5800 17.9250 19.2970 0
M  V30 369 C 11.6100 17.4180 20.0520 0
M  V30 370 H 11.6020 16.5100 20.3300 0
M  V30 371 C 12.6540 18.2510 20.4040 0
M  V30 372 H 13.3450 17.8890 20.9490 0
M  V30 373 C 12.7620 19.5850 20.0130 0
M  V30 374 C 11.7170 20.0780 19.2330 0
M  V30 375 C 10.6250 19.2690 18.9180 0
M  V30 376 C 13.9690 20.3570 20.4100 0
M  V30 377 C 14.5270 20.1800 21.6760 0
M  V30 378 H 14.0970 19.6090 22.3010 0
M  V30 379 C 15.6900 20.8220 22.0370 0
M  V30 380 H 16.0560 20.6740 22.9010 0
M  V30 381 C 16.3380 21.6820 21.1560 0
M  V30 382 C 15.7880 21.8910 19.9070 0
M  V30 383 H 16.2040 22.4920 19.2980 0
M  V30 384 C 14.6310 21.2310 19.5460 0
M  V30 385 H 14.2750 21.3740 18.6780 0
M  V30 386 C 17.4540 23.6030 21.7000 0
M  V30 387 H 16.6680 24.0420 21.3950 0
M  V30 388 C 18.5660 24.4020 22.2200 0
M  V30 389 C 18.4670 25.7790 22.3950 0
M  V30 390 H 17.7090 26.2490 22.0710 0
M  V30 391 C 19.4850 26.4530 23.0510 0
M  V30 392 H 19.4120 27.3860 23.2110 0
M  V30 393 C 20.6000 25.7650 23.4690 0
M  V30 394 H 21.3090 26.2000 23.9250 0
M  V30 395 C 20.6470 24.4120 23.1980 0
M  V30 396 H 21.4290 23.9330 23.4460 0
M  V30 END ATOM
M  V30 BEGIN BOND
M  V30 1 1   1 207
M  V30 2 1   1 308
M  V30 3 1   1 309
M  V30 4 1   1 110
M  V30 5 1   1 206
M  V30 6 1   1 111
M  V30 7 1   2 209
M  V30 8 1   2 208
M  V30 9 1   2  14
M  V30 10 1   2 108
M  V30 11 1   2  15
M  V30 12 1   2 109
M  V30 13 1   3  11
M  V30 14 1   3 113
M  V30 15 1   3 112
M  V30 16 1   3  10
M  V30 17 1   3 306
M  V30 18 1   3 307
M  V30 19 1   4  13
M  V30 20 1   4 304
M  V30 21 1   4  12
M  V30 22 1   4 211
M  V30 23 1   4 210
M  V30 24 1   4 305
M  V30 25 1   5   9
M  V30 26 1   5  81
M  V30 27 1   5  52
M  V30 28 1   5  39
M  V30 29 1   6  45
M  V30 30 1   6  38
M  V30 31 1   7  74
M  V30 32 1   7  51
M  V30 33 1   8  80
M  V30 34 1   8  40
M  V30 35 1  10  24
M  V30 36 1  10  16
M  V30 37 1  11  27
M  V30 38 1  11  25
M  V30 39 1  12  63
M  V30 40 1  12  58
M  V30 41 1  13  72
M  V30 42 1  13  65
M  V30 43 1  14  87
M  V30 44 1  14  92
M  V30 45 1  15 101
M  V30 46 1  15  94
M  V30 47 1  16  18
M  V30 48 1  16  17
M  V30 49 1  18  20
M  V30 50 1  18  19
M  V30 51 1  20  22
M  V30 52 1  20  21
M  V30 53 1  22  23
M  V30 54 1  22  24
M  V30 55 1  24  25
M  V30 56 1  25  26
M  V30 57 1  27  28
M  V30 58 1  27  35
M  V30 59 1  28  30
M  V30 60 1  28  29
M  V30 61 1  30  31
M  V30 62 1  30  32
M  V30 63 1  32  37
M  V30 64 1  32  33
M  V30 65 1  33  34
M  V30 66 1  33  35
M  V30 67 1  35  36
M  V30 68 1  37  38
M  V30 69 1  37  43
M  V30 70 1  38  39
M  V30 71 1  39  40
M  V30 72 1  40  41
M  V30 73 1  41  42
M  V30 74 1  41  43
M  V30 75 1  43  44
M  V30 76 1  45  52
M  V30 77 1  45  46
M  V30 78 1  46  48
M  V30 79 1  46  47
M  V30 80 1  48  50
M  V30 81 1  48  49
M  V30 82 1  50  51
M  V30 83 1  50  53
M  V30 84 1  51  52
M  V30 85 1  53  61
M  V30 86 1  53  54
M  V30 87 1  54  56
M  V30 88 1  54  55
M  V30 89 1  56  58
M  V30 90 1  56  57
M  V30 91 1  58  59
M  V30 92 1  59  60
M  V30 93 1  59  61
M  V30 94 1  61  62
M  V30 95 1  63  65
M  V30 96 1  63  64
M  V30 97 1  65  66
M  V30 98 1  66  68
M  V30 99 1  66  67
M  V30 100 1  68  69
M  V30 101 1  68  70
M  V30 102 1  70  71
M  V30 103 1  70  72
M  V30 104 1  72  73
M  V30 105 1  74  75
M  V30 106 1  74  81
M  V30 107 1  75  76
M  V30 108 1  75  77
M  V30 109 1  77  78
M  V30 110 1  77  79
M  V30 111 1  79  80
M  V30 112 1  79  82
M  V30 113 1  80  81
M  V30 114 1  82  83
M  V30 115 1  82  90
M  V30 116 1  83  84
M  V30 117 1  83  85
M  V30 118 1  85  86
M  V30 119 1  85  87
M  V30 120 1  87  88
M  V30 121 1  88  90
M  V30 122 1  88  89
M  V30 123 1  90  91
M  V30 124 1  92  93
M  V30 125 1  92  94
M  V30 126 1  94  95
M  V30 127 1  95  97
M  V30 128 1  95  96
M  V30 129 1  97  99
M  V30 130 1  97  98
M  V30 131 1  99 101
M  V30 132 1  99 100
M  V30 133 1 101 102
M  V30 134 1 103 137
M  V30 135 1 103 150
M  V30 136 1 103 179
M  V30 137 1 103 107
M  V30 138 1 104 136
M  V30 139 1 104 143
M  V30 140 1 105 149
M  V30 141 1 105 172
M  V30 142 1 106 138
M  V30 143 1 106 178
M  V30 144 1 108 114
M  V30 145 1 108 122
M  V30 146 1 109 123
M  V30 147 1 109 125
M  V30 148 1 110 156
M  V30 149 1 110 161
M  V30 150 1 111 163
M  V30 151 1 111 170
M  V30 152 1 112 190
M  V30 153 1 112 185
M  V30 154 1 113 192
M  V30 155 1 113 199
M  V30 156 1 114 115
M  V30 157 1 114 116
M  V30 158 1 116 117
M  V30 159 1 116 118
M  V30 160 1 118 119
M  V30 161 1 118 120
M  V30 162 1 120 122
M  V30 163 1 120 121
M  V30 164 1 122 123
M  V30 165 1 123 124
M  V30 166 1 125 133
M  V30 167 1 125 126
M  V30 168 1 126 127
M  V30 169 1 126 128
M  V30 170 1 128 130
M  V30 171 1 128 129
M  V30 172 1 130 131
M  V30 173 1 130 135
M  V30 174 1 131 133
M  V30 175 1 131 132
M  V30 176 1 133 134
M  V30 177 1 135 141
M  V30 178 1 135 136
M  V30 179 1 136 137
M  V30 180 1 137 138
M  V30 181 1 138 139
M  V30 182 1 139 141
M  V30 183 1 139 140
M  V30 184 1 141 142
M  V30 185 1 143 144
M  V30 186 1 143 150
M  V30 187 1 144 145
M  V30 188 1 144 146
M  V30 189 1 146 147
M  V30 190 1 146 148
M  V30 191 1 148 149
M  V30 192 1 148 151
M  V30 193 1 149 150
M  V30 194 1 151 152
M  V30 195 1 151 159
M  V30 196 1 152 153
M  V30 197 1 152 154
M  V30 198 1 154 155
M  V30 199 1 154 156
M  V30 200 1 156 157
M  V30 201 1 157 159
M  V30 202 1 157 158
M  V30 203 1 159 160
M  V30 204 1 161 162
M  V30 205 1 161 163
M  V30 206 1 163 164
M  V30 207 1 164 165
M  V30 208 1 164 166
M  V30 209 1 166 168
M  V30 210 1 166 167
M  V30 211 1 168 170
M  V30 212 1 168 169
M  V30 213 1 170 171
M  V30 214 1 172 179
M  V30 215 1 172 173
M  V30 216 1 173 175
M  V30 217 1 173 174
M  V30 218 1 175 177
M  V30 219 1 175 176
M  V30 220 1 177 180
M  V30 221 1 177 178
M  V30 222 1 178 179
M  V30 223 1 180 188
M  V30 224 1 180 181
M  V30 225 1 181 183
M  V30 226 1 181 182
M  V30 227 1 183 185
M  V30 228 1 183 184
M  V30 229 1 185 186
M  V30 230 1 186 187
M  V30 231 1 186 188
M  V30 232 1 188 189
M  V30 233 1 190 192
M  V30 234 1 190 191
M  V30 235 1 192 193
M  V30 236 1 193 194
M  V30 237 1 193 195
M  V30 238 1 195 196
M  V30 239 1 195 197
M  V30 240 1 197 198
M  V30 241 1 197 199
M  V30 242 1 199 200
M  V30 243 1 201 277
M  V30 244 1 201 205
M  V30 245 1 201 248
M  V30 246 1 201 235
M  V30 247 1 202 241
M  V30 248 1 202 234
M  V30 249 1 203 270
M  V30 250 1 203 247
M  V30 251 1 204 276
M  V30 252 1 204 236
M  V30 253 1 206 220
M  V30 254 1 206 212
M  V30 255 1 207 223
M  V30 256 1 207 221
M  V30 257 1 208 259
M  V30 258 1 208 254
M  V30 259 1 209 268
M  V30 260 1 209 261
M  V30 261 1 210 288
M  V30 262 1 210 283
M  V30 263 1 211 297
M  V30 264 1 211 290
M  V30 265 1 212 214
M  V30 266 1 212 213
M  V30 267 1 214 216
M  V30 268 1 214 215
M  V30 269 1 216 218
M  V30 270 1 216 217
M  V30 271 1 218 219
M  V30 272 1 218 220
M  V30 273 1 220 221
M  V30 274 1 221 222
M  V30 275 1 223 224
M  V30 276 1 223 231
M  V30 277 1 224 226
M  V30 278 1 224 225
M  V30 279 1 226 227
M  V30 280 1 226 228
M  V30 281 1 228 233
M  V30 282 1 228 229
M  V30 283 1 229 230
M  V30 284 1 229 231
M  V30 285 1 231 232
M  V30 286 1 233 234
M  V30 287 1 233 239
M  V30 288 1 234 235
M  V30 289 1 235 236
M  V30 290 1 236 237
M  V30 291 1 237 238
M  V30 292 1 237 239
M  V30 293 1 239 240
M  V30 294 1 241 248
M  V30 295 1 241 242
M  V30 296 1 242 244
M  V30 297 1 242 243
M  V30 298 1 244 246
M  V30 299 1 244 245
M  V30 300 1 246 249
M  V30 301 1 246 247
M  V30 302 1 247 248
M  V30 303 1 249 257
M  V30 304 1 249 250
M  V30 305 1 250 252
M  V30 306 1 250 251
M  V30 307 1 252 254
M  V30 308 1 252 253
M  V30 309 1 254 255
M  V30 310 1 255 256
M  V30 311 1 255 257
M  V30 312 1 257 258
M  V30 313 1 259 261
M  V30 314 1 259 260
M  V30 315 1 261 262
M  V30 316 1 262 264
M  V30 317 1 262 263
M  V30 318 1 264 265
M  V30 319 1 264 266
M  V30 320 1 266 267
M  V30 321 1 266 268
M  V30 322 1 268 269
M  V30 323 1 270 271
M  V30 324 1 270 277
M  V30 325 1 271 272
M  V30 326 1 271 273
M  V30 327 1 273 274
M  V30 328 1 273 275
M  V30 329 1 275 278
M  V30 330 1 275 276
M  V30 331 1 276 277
M  V30 332 1 278 279
M  V30 333 1 278 286
M  V30 334 1 279 280
M  V30 335 1 279 281
M  V30 336 1 281 282
M  V30 337 1 281 283
M  V30 338 1 283 284
M  V30 339 1 284 286
M  V30 340 1 284 285
M  V30 341 1 286 287
M  V30 342 1 288 290
M  V30 343 1 288 289
M  V30 344 1 290 291
M  V30 345 1 291 293
M  V30 346 1 291 292
M  V30 347 1 293 295
M  V30 348 1 293 294
M  V30 349 1 295 296
M  V30 350 1 295 297
M  V30 351 1 297 298
M  V30 352 1 299 333
M  V30 353 1 299 346
M  V30 354 1 299 303
M  V30 355 1 299 375
M  V30 356 1 300 332
M  V30 357 1 300 339
M  V30 358 1 301 345
M  V30 359 1 301 368
M  V30 360 1 302 334
M  V30 361 1 302 374
M  V30 362 1 304 310
M  V30 363 1 304 318
M  V30 364 1 305 319
M  V30 365 1 305 321
M  V30 366 1 306 352
M  V30 367 1 306 357
M  V30 368 1 307 366
M  V30 369 1 307 359
M  V30 370 1 308 381
M  V30 371 1 308 386
M  V30 372 1 309 388
M  V30 373 1 309 395
M  V30 374 1 310 311
M  V30 375 1 310 312
M  V30 376 1 312 313
M  V30 377 1 312 314
M  V30 378 1 314 315
M  V30 379 1 314 316
M  V30 380 1 316 318
M  V30 381 1 316 317
M  V30 382 1 318 319
M  V30 383 1 319 320
M  V30 384 1 321 329
M  V30 385 1 321 322
M  V30 386 1 322 323
M  V30 387 1 322 324
M  V30 388 1 324 325
M  V30 389 1 324 326
M  V30 390 1 326 327
M  V30 391 1 326 331
M  V30 392 1 327 329
M  V30 393 1 327 328
M  V30 394 1 329 330
M  V30 395 1 331 337
M  V30 396 1 331 332
M  V30 397 1 332 333
M  V30 398 1 333 334
M  V30 399 1 334 335
M  V30 400 1 335 337
M  V30 401 1 335 336
M  V30 402 1 337 338
M  V30 403 1 339 340
M  V30 404 1 339 346
M  V30 405 1 340 341
M  V30 406 1 340 342
M  V30 407 1 342 343
M  V30 408 1 342 344
M  V30 409 1 344 347
M  V30 410 1 344 345
M  V30 411 1 345 346
M  V30 412 1 347 348
M  V30 413 1 347 355
M  V30 414 1 348 349
M  V30 415 1 348 350
M  V30 416 1 350 351
M  V30 417 1 350 352
M  V30 418 1 352 353
M  V30 419 1 353 355
M  V30 420 1 353 354
M  V30 421 1 355 356
M  V30 422 1 357 358
M  V30 423 1 357 359
M  V30 424 1 359 360
M  V30 425 1 360 362
M  V30 426 1 360 361
M  V30 427 1 362 364
M  V30 428 1 362 363
M  V30 429 1 364 366
M  V30 430 1 364 365
M  V30 431 1 366 367
M  V30 432 1 368 375
M  V30 433 1 368 369
M  V30 434 1 369 370
M  V30 435 1 369 371
M  V30 436 1 371 373
M  V30 437 1 371 372
M  V30 438 1 373 374
M  V30 439 1 373 376
M  V30 440 1 374 375
M  V30 441 1 376 384
M  V30 442 1 376 377
M  V30 443 1 377 379
M  V30 444 1 377 378
M  V30 445 1 379 381
M  V30 446 1 379 380
M  V30 447 1 381 382
M  V30 448 1 382 383
M  V30 449 1 382 384
M  V30 450 1 384 385
M  V30 451 1 386 387
M  V30 452 1 386 388
M  V30 453 1 388 389
M  V30 454 1 389 390
M  V30 455 1 389 391
M  V30 456 1 391 392
M  V30 457 1 391 393
M  V30 458 1 393 395
M  V30 459 1 393 394
M  V30 460 1 395 396
M  V30 461 1 M   END
M  V30 END BOND
M  V30 END CTAB

