     RDKit          3D

  0  0  0  0  0  0  0  0  0  0999 V3000
M  V30 BEGIN CTAB
M  V30 COUNTS 281 307 0 0 0
M  V30 BEGIN ATOM
M  V30 1 N -3.8160 18.5490 13.7340 0
M  V30 2 N -7.8800 21.6280 10.3550 0
M  V30 3 N -3.0350 12.7490 10.9740 0
M  V30 4 N 0.9300 17.0450 9.0990 0
M  V30 5 N -8.5660 15.2770 10.9220 0
M  V30 6 N -7.5460 12.5400 5.5030 0
M  V30 7 N -5.8830 16.7270 1.7300 0
M  V30 8 N -1.1690 13.8800 4.4720 0
M  V30 9 N -11.0440 18.0260 5.1760 0
M  V30 10 N -7.0170 22.6570 4.6530 0
M  V30 11 N -2.5410 22.9810 9.0670 0
M  V30 12 N -0.4500 20.3250 3.9350 0
M  V30 13 C -3.4940 14.8940 15.9730 0
M  V30 14 C -3.5710 16.0640 15.1170 0
M  V30 15 C -2.8080 18.3990 14.6200 0
M  V30 16 C -9.1890 21.8530 10.3040 0
M  V30 17 C -9.1410 25.2380 8.5980 0
M  V30 18 C -8.6920 24.0300 9.1660 0
M  V30 19 C -6.1050 11.7270 13.8130 0
M  V30 20 C -5.1070 12.1530 12.8690 0
M  V30 21 C -3.5480 11.5360 10.9830 0
M  V30 22 C 1.8760 17.8360 9.5300 0
M  V30 23 C 2.8350 18.0270 7.1980 0
M  V30 24 C 3.8800 18.4580 6.3660 0
M  V30 25 C -8.0410 15.5160 15.2200 0
M  V30 26 C -8.1720 15.4840 13.7250 0
M  V30 27 C -9.5720 15.7800 11.6750 0
M  V30 28 C -7.0230 11.5350 4.7550 0
M  V30 29 C -8.2140 12.5860 2.7320 0
M  V30 30 C -8.5000 12.5080 1.3310 0
M  V30 31 C -9.8310 16.5730 0.1990 0
M  V30 32 C -8.5420 16.6600 0.7450 0
M  V30 33 C -6.1550 17.4250 0.6040 0
M  V30 34 C -0.5200 12.7760 4.9730 0
M  V30 35 C 1.5550 14.1990 5.2430 0
M  V30 36 C 2.9740 14.2590 5.5050 0
M  V30 37 C -12.3290 14.3240 3.4130 0
M  V30 38 C -11.8060 15.5200 4.0610 0
M  V30 39 C -12.2300 17.5500 5.5210 0
M  V30 40 C -6.3570 23.4530 3.7960 0
M  V30 41 C -5.8600 25.1170 5.6380 0
M  V30 42 C -5.3390 26.3810 6.0020 0
M  V30 43 C -5.0540 26.0880 10.5790 0
M  V30 44 C -4.2250 25.0430 10.0640 0
M  V30 45 C -2.2420 23.5340 10.2580 0
M  V30 46 C -0.1110 20.4550 2.6260 0
M  V30 47 C 1.3090 18.3860 2.7660 0
M  V30 48 C 2.2900 17.5230 2.1650 0
M  V30 49 C -4.2920 19.6930 13.0460 0
M  V30 50 C -7.2160 20.4570 10.8720 0
M  V30 51 C -1.9500 13.2780 10.2590 0
M  V30 52 C -0.1780 16.5410 9.8220 0
M  V30 53 C -8.5380 15.1600 9.5150 0
M  V30 54 C -7.4080 12.7150 6.9280 0
M  V30 55 C -4.6340 16.6580 2.3940 0
M  V30 56 C -2.4100 13.9650 3.8410 0
M  V30 57 C -10.4350 19.2550 5.5250 0
M  V30 58 C -7.6060 21.4150 4.3840 0
M  V30 59 C -1.7870 22.0380 8.3290 0
M  V30 60 C -1.2540 21.1700 4.7130 0
M  V30 61 C -2.5290 14.8870 16.9600 0
M  V30 62 C -2.7210 17.1720 15.3290 0
M  V30 63 C -1.7920 17.0850 16.3950 0
M  V30 64 C -1.6720 15.9550 17.1880 0
M  V30 65 C -3.7710 20.9310 13.2650 0
M  V30 66 C -5.4030 19.4860 12.2150 0
M  V30 67 C -5.9290 18.2380 11.8800 0
M  V30 68 C -6.0380 20.6520 11.6690 0
M  V30 69 C -7.0260 18.1000 11.1130 0
M  V30 70 C -7.6890 19.2440 10.6000 0
M  V30 71 C -5.4670 21.9270 11.8980 0
M  V30 72 C -4.3770 22.0400 12.6410 0
M  V30 73 C -9.5900 23.1400 9.7160 0
M  V30 74 C -10.9870 23.4410 9.6890 0
M  V30 75 C -11.4030 24.5930 9.1410 0
M  V30 76 C -10.4940 25.5050 8.5970 0
M  V30 77 C -6.5370 10.4360 13.8630 0
M  V30 78 C -4.6280 11.1990 11.9640 0
M  V30 79 C -5.0940 9.9020 12.0000 0
M  V30 80 C -6.0270 9.5170 12.8880 0
M  V30 81 C -1.1780 12.4480 9.4480 0
M  V30 82 C -1.6500 14.6360 10.3710 0
M  V30 83 C -2.4000 15.5250 11.1910 0
M  V30 84 C -0.5140 15.1770 9.6800 0
M  V30 85 C -2.0410 16.8190 11.2870 0
M  V30 86 C -0.9270 17.3520 10.6180 0
M  V30 87 C 0.2530 14.2780 8.8360 0
M  V30 88 C -0.0840 13.0170 8.7170 0
M  V30 89 C 2.8970 18.3290 8.5770 0
M  V30 90 C 3.9880 19.0540 9.0770 0
M  V30 91 C 5.0020 19.5040 8.2270 0
M  V30 92 C 4.8940 19.1540 6.8390 0
M  V30 93 C -9.1600 15.8940 15.9230 0
M  V30 94 C -9.3460 15.8500 13.1640 0
M  V30 95 C -10.4550 16.2200 13.9150 0
M  V30 96 C -10.3420 16.2600 15.3230 0
M  V30 97 C -9.1390 16.1380 8.7490 0
M  V30 98 C -7.9090 14.0860 8.9230 0
M  V30 99 C -7.1970 13.1430 9.6900 0
M  V30 100 C -7.9750 13.9000 7.4830 0
M  V30 101 C -6.6430 12.0680 9.1000 0
M  V30 102 C -6.7850 11.8230 7.7090 0
M  V30 103 C -8.6420 14.8860 6.7330 0
M  V30 104 C -9.2070 15.9830 7.3150 0
M  V30 105 C -7.4510 11.6030 3.3150 0
M  V30 106 C -6.8900 10.5550 2.4910 0
M  V30 107 C -8.0120 11.4940 0.5720 0
M  V30 108 C -7.1950 10.5150 1.1540 0
M  V30 109 C -10.1060 17.2870 -0.9790 0
M  V30 110 C -7.5020 17.3570 0.1340 0
M  V30 111 C -7.8450 18.0710 -1.0940 0
M  V30 112 C -9.0770 18.0090 -1.5910 0
M  V30 113 C -3.9210 17.7590 2.6760 0
M  V30 114 C -4.1470 15.3750 2.7810 0
M  V30 115 C -4.8490 14.2000 2.4640 0
M  V30 116 C -2.8800 15.2530 3.4420 0
M  V30 117 C -4.3470 12.9840 2.8170 0
M  V30 118 C -3.1490 12.8660 3.4790 0
M  V30 119 C -2.1490 16.4630 3.6780 0
M  V30 120 C -2.6520 17.6550 3.3260 0
M  V30 121 C 0.8950 12.9930 5.3070 0
M  V30 122 C 1.6300 11.8340 5.6520 0
M  V30 123 C 3.6120 13.0700 5.8240 0
M  V30 124 C 2.9580 11.8740 5.9090 0
M  V30 125 C -13.5830 13.9020 3.7460 0
M  V30 126 C -12.6120 16.2510 4.9330 0
M  V30 127 C -13.9310 15.7440 5.1820 0
M  V30 128 C -14.3810 14.5990 4.6120 0
M  V30 129 C -10.9460 19.9910 6.5670 0
M  V30 130 C -9.3340 19.7040 4.8220 0
M  V30 131 C -8.7210 18.8870 3.8500 0
M  V30 132 C -8.7060 20.9570 5.0830 0
M  V30 133 C -7.6070 19.3260 3.2090 0
M  V30 134 C -7.0150 20.5950 3.4780 0
M  V30 135 C -9.2800 21.7430 6.1180 0
M  V30 136 C -10.3340 21.2630 6.8320 0
M  V30 137 C -5.7930 24.7290 4.2750 0
M  V30 138 C -5.2060 25.5870 3.3480 0
M  V30 139 C -4.7040 27.1940 5.0650 0
M  V30 140 C -4.6320 26.7810 3.6730 0
M  V30 141 C -4.6330 26.7180 11.7630 0
M  V30 142 C -3.1120 24.6150 10.7140 0
M  V30 143 C -2.7290 25.2930 11.9120 0
M  V30 144 C -3.4750 26.3120 12.4220 0
M  V30 145 C -0.9770 21.1630 8.9400 0
M  V30 146 C -1.9340 22.0370 6.9060 0
M  V30 147 C -2.8190 22.8950 6.2730 0
M  V30 148 C -2.9760 22.8640 4.9060 0
M  V30 149 C -2.1830 21.9810 4.1110 0
M  V30 150 C -0.2670 20.3020 6.7610 0
M  V30 151 C -0.1910 20.2670 8.1280 0
M  V30 152 C 0.7820 19.4250 2.0600 0
M  V30 153 C 1.1910 19.6330 0.7300 0
M  V30 154 C 2.6260 17.7250 0.8070 0
M  V30 155 C 2.0740 18.7810 0.0970 0
M  V30 156 C -1.0400 21.1690 6.0560 0
M  V30 157 O -6.8710 15.2050 15.6950 0
M  V30 158 O -6.5680 12.6760 14.6710 0
M  V30 159 O -4.3310 13.9240 15.7350 0
M  V30 160 O -4.7610 13.4170 12.8980 0
M  V30 161 O -4.5290 16.0140 14.1820 0
M  V30 162 O -7.0480 15.0800 13.0900 0
M  V30 163 O -11.5120 13.7140 2.5590 0
M  V30 164 O -9.2810 13.4610 0.8430 0
M  V30 165 O -10.7500 15.8560 0.8390 0
M  V30 166 O -8.3550 15.9680 1.8870 0
M  V30 167 O -10.5830 15.8510 3.7120 0
M  V30 168 O -8.7470 13.6020 3.3960 0
M  V30 169 O -5.5100 26.7650 7.2720 0
M  V30 170 O -8.2120 26.0690 8.0710 0
M  V30 171 O -6.1610 26.4200 9.9610 0
M  V30 172 O -7.3610 23.8520 9.1570 0
M  V30 173 O -4.6970 24.4820 8.9110 0
M  V30 174 O -6.4090 24.3820 6.5650 0
M  V30 175 O 3.5600 15.4150 5.3670 0
M  V30 176 O 3.7710 18.1370 5.0420 0
M  V30 177 O 2.7960 16.6150 2.9660 0
M  V30 178 O 1.0500 18.2230 3.9840 0
M  V30 179 O 1.8550 17.3230 6.6630 0
M  V30 180 O 0.9900 15.3360 4.8750 0
M  V30 181 O -2.0090 19.3390 14.8480 0
M  V30 182 O -10.0410 21.0380 10.7170 0
M  V30 183 O -3.2020 10.6280 10.1720 0
M  V30 184 O 1.9410 18.2160 10.7510 0
M  V30 185 O -10.6340 16.1930 11.1810 0
M  V30 186 O -6.3250 10.6410 5.1980 0
M  V30 187 O -5.2380 18.0790 0.0380 0
M  V30 188 O -1.0730 11.6850 5.0250 0
M  V30 189 O -13.0440 18.1600 6.2440 0
M  V30 190 O -6.2330 23.1550 2.5570 0
M  V30 191 O -1.2600 23.1500 10.9190 0
M  V30 192 O -0.5780 21.3600 1.9340 0
M  V30 193 Ga -5.6760 14.3900 14.3850 0
M  V30 194 Ga -9.8880 14.7370 2.2080 0
M  V30 195 Ga -6.3970 25.3610 8.3220 0
M  V30 196 Ga 2.3360 16.8150 4.8060 0
M  V30 197 H -4.2440 17.8220 13.5570 0
M  V30 198 H -7.3730 22.2500 10.0450 0
M  V30 199 H -3.4330 13.3100 11.4880 0
M  V30 200 H 0.9870 16.8030 8.2760 0
M  V30 201 H -7.8720 14.9960 11.3430 0
M  V30 202 H -8.0040 13.1330 5.0810 0
M  V30 203 H -6.5320 16.2860 2.0800 0
M  V30 204 H -0.7460 14.6230 4.5590 0
M  V30 205 H -10.5760 17.5140 4.6670 0
M  V30 206 H -7.0860 22.9440 5.4610 0
M  V30 207 H -3.2820 23.2300 8.7120 0
M  V30 208 H -0.1310 19.6360 4.3400 0
M  V30 209 H -1.2390 17.8120 16.5670 0
M  V30 210 H -1.0310 15.9140 17.8600 0
M  V30 211 H -2.4480 14.1290 17.4960 0
M  V30 212 H -5.5040 17.4730 12.1960 0
M  V30 213 H -7.3520 17.2530 10.9200 0
M  V30 214 H -8.4540 19.1460 10.0780 0
M  V30 215 H -5.8590 22.6840 11.5280 0
M  V30 216 H -3.9970 22.8800 12.7530 0
M  V30 217 H -3.0290 21.0460 13.8120 0
M  V30 218 H -11.6040 22.8440 10.0460 0
M  V30 219 H -12.3100 24.7880 9.1200 0
M  V30 220 H -10.8050 26.3030 8.2330 0
M  V30 221 H -4.7560 9.2820 11.3950 0
M  V30 222 H -6.3450 8.6440 12.8690 0
M  V30 223 H -7.1430 10.1600 14.5120 0
M  V30 224 H -3.1410 15.2120 11.6610 0
M  V30 225 H -2.5540 17.3850 11.8190 0
M  V30 226 H -0.7030 18.2510 10.7160 0
M  V30 227 H 0.9910 14.6030 8.3760 0
M  V30 228 H 0.4030 12.4740 8.1370 0
M  V30 229 H -1.3690 11.5400 9.3790 0
M  V30 230 H 4.0360 19.2400 9.9880 0
M  V30 231 H 5.7170 20.0070 8.5450 0
M  V30 232 H 5.5630 19.4270 6.2550 0
M  V30 233 H -11.2570 16.4380 13.4970 0
M  V30 234 H -11.0650 16.5310 15.8450 0
M  V30 235 H -9.1150 15.9020 16.8540 0
M  V30 236 H -7.1120 13.2650 10.6100 0
M  V30 237 H -6.1550 11.4680 9.6200 0
M  V30 238 H -6.4430 11.0400 7.3370 0
M  V30 239 H -8.6990 14.7890 5.8120 0
M  V30 240 H -9.6360 16.6250 6.7970 0
M  V30 241 H -9.4960 16.8950 9.1550 0
M  V30 242 H -8.2180 11.4470 -0.3340 0
M  V30 243 H -6.8590 9.8290 0.6270 0
M  V30 244 H -6.3280 9.9120 2.8590 0
M  V30 245 H -7.1960 18.5750 -1.5330 0
M  V30 246 H -9.2600 18.4650 -2.3780 0
M  V30 247 H -10.9600 17.2790 -1.3500 0
M  V30 248 H -5.6610 14.2530 2.0150 0
M  V30 249 H -4.8260 12.2160 2.6020 0
M  V30 250 H -2.8290 12.0170 3.6890 0
M  V30 251 H -1.3140 16.4230 4.0840 0
M  V30 252 H -2.1660 18.4270 3.5080 0
M  V30 253 H -4.2550 18.5950 2.4450 0
M  V30 254 H 4.5260 13.0890 5.9910 0
M  V30 255 H 3.4210 11.1000 6.1370 0
M  V30 256 H 1.1870 11.0180 5.7030 0
M  V30 257 H -14.4950 16.2140 5.7510 0
M  V30 258 H -15.2340 14.2870 4.8070 0
M  V30 259 H -13.9040 13.1110 3.3740 0
M  V30 260 H -9.0750 18.0500 3.6460 0
M  V30 261 H -7.2150 18.7770 2.5720 0
M  V30 262 H -6.2380 20.8580 3.0380 0
M  V30 263 H -8.9340 22.5870 6.3070 0
M  V30 264 H -10.6740 21.7840 7.5230 0
M  V30 265 H -11.6590 19.6790 7.0800 0
M  V30 266 H -4.3270 28.0020 5.3310 0
M  V30 267 H -4.2090 27.3060 3.0300 0
M  V30 268 H -5.2050 25.3320 2.4530 0
M  V30 269 H -1.9510 25.0360 12.3530 0
M  V30 270 H -3.2150 26.7330 13.2080 0
M  V30 271 H -5.1370 27.4180 12.1140 0
M  V30 272 H -3.3150 23.4970 6.7790 0
M  V30 273 H -3.5990 23.4170 4.4970 0
M  V30 274 H -2.2970 21.9560 3.1890 0
M  V30 275 H 0.2760 19.7330 6.2650 0
M  V30 276 H 0.3750 19.6530 8.5390 0
M  V30 277 H -0.9210 21.1330 9.8690 0
M  V30 278 H 3.2200 17.1480 0.3860 0
M  V30 279 H 2.2990 18.9160 -0.7940 0
M  V30 280 H 0.8530 20.3610 0.2630 0
M  V30 281 H -5.2510 25.3990 11.1340 0
M  V30 END ATOM
M  V30 BEGIN BOND
M  V30 1 1   1  49
M  V30 2 1   1 197
M  V30 3 1   1  15
M  V30 4 1   2 198
M  V30 5 1   2  16
M  V30 6 1   2  50
M  V30 7 1   3  51
M  V30 8 1   3  21
M  V30 9 1   3 199
M  V30 10 1   4 200
M  V30 11 1   4  22
M  V30 12 1   4  52
M  V30 13 1   5  53
M  V30 14 1   5 201
M  V30 15 1   5  27
M  V30 16 1   6  28
M  V30 17 1   6 202
M  V30 18 1   6  54
M  V30 19 1   7  33
M  V30 20 1   7 203
M  V30 21 1   7  55
M  V30 22 1   8  56
M  V30 23 1   8 204
M  V30 24 1   8  34
M  V30 25 1   9 205
M  V30 26 1   9  39
M  V30 27 1   9  57
M  V30 28 1  10  40
M  V30 29 1  10  58
M  V30 30 1  10 206
M  V30 31 1  11  59
M  V30 32 1  11 207
M  V30 33 1  11  45
M  V30 34 1  12  46
M  V30 35 1  12 208
M  V30 36 1  12  60
M  V30 37 1  13  14
M  V30 38 1  13 159
M  V30 39 1  13  61
M  V30 40 1  14 161
M  V30 41 1  14  62
M  V30 42 1  15 181
M  V30 43 1  15  62
M  V30 44 1  16  73
M  V30 45 1  16 182
M  V30 46 1  17 170
M  V30 47 1  17  76
M  V30 48 1  17  18
M  V30 49 1  18 172
M  V30 50 1  18  73
M  V30 51 1  19  20
M  V30 52 1  19  77
M  V30 53 1  19 158
M  V30 54 1  20  78
M  V30 55 1  20 160
M  V30 56 1  21 183
M  V30 57 1  21  78
M  V30 58 1  22  89
M  V30 59 1  22 184
M  V30 60 1  23  24
M  V30 61 1  23 179
M  V30 62 1  23  89
M  V30 63 1  24 176
M  V30 64 1  24  92
M  V30 65 1  25  26
M  V30 66 1  25 157
M  V30 67 1  25  93
M  V30 68 1  26 162
M  V30 69 1  26  94
M  V30 70 1  27 185
M  V30 71 1  27  94
M  V30 72 1  28 105
M  V30 73 1  28 186
M  V30 74 1  29  30
M  V30 75 1  29 105
M  V30 76 1  29 168
M  V30 77 1  30 107
M  V30 78 1  30 164
M  V30 79 1  31 109
M  V30 80 1  31  32
M  V30 81 1  31 165
M  V30 82 1  32 110
M  V30 83 1  32 166
M  V30 84 1  33 187
M  V30 85 1  33 110
M  V30 86 1  34 188
M  V30 87 1  34 121
M  V30 88 1  35 180
M  V30 89 1  35 121
M  V30 90 1  35  36
M  V30 91 1  36 175
M  V30 92 1  36 123
M  V30 93 1  37 163
M  V30 94 1  37 125
M  V30 95 1  37  38
M  V30 96 1  38 167
M  V30 97 1  38 126
M  V30 98 1  39 126
M  V30 99 1  39 189
M  V30 100 1  40 190
M  V30 101 1  40 137
M  V30 102 1  41 137
M  V30 103 1  41  42
M  V30 104 1  41 174
M  V30 105 1  42 139
M  V30 106 1  42 169
M  V30 107 1  43 171
M  V30 108 1  43  44
M  V30 109 1  43 281
M  V30 110 1  43 141
M  V30 111 1  44 173
M  V30 112 1  44 142
M  V30 113 1  45 142
M  V30 114 1  45 191
M  V30 115 1  46 192
M  V30 116 1  46 152
M  V30 117 1  47 152
M  V30 118 1  47  48
M  V30 119 1  47 178
M  V30 120 1  48 154
M  V30 121 1  48 177
M  V30 122 1  49  66
M  V30 123 1  49  65
M  V30 124 1  50  70
M  V30 125 1  50  68
M  V30 126 1  51  81
M  V30 127 1  51  82
M  V30 128 1  52  84
M  V30 129 1  52  86
M  V30 130 1  53  97
M  V30 131 1  53  98
M  V30 132 1  54 100
M  V30 133 1  54 102
M  V30 134 1  55 113
M  V30 135 1  55 114
M  V30 136 1  56 116
M  V30 137 1  56 118
M  V30 138 1  57 130
M  V30 139 1  57 129
M  V30 140 1  58 134
M  V30 141 1  58 132
M  V30 142 1  59 146
M  V30 143 1  59 145
M  V30 144 1  60 149
M  V30 145 1  60 156
M  V30 146 1  61  64
M  V30 147 1  61 211
M  V30 148 1  62  63
M  V30 149 1  63 209
M  V30 150 1  63  64
M  V30 151 1  64 210
M  V30 152 1  65  72
M  V30 153 1  65 217
M  V30 154 1  66  68
M  V30 155 1  66  67
M  V30 156 1  67  69
M  V30 157 1  67 212
M  V30 158 1  68  71
M  V30 159 1  69  70
M  V30 160 1  69 213
M  V30 161 1  70 214
M  V30 162 1  71 215
M  V30 163 1  71  72
M  V30 164 1  72 216
M  V30 165 1  73  74
M  V30 166 1  74  75
M  V30 167 1  74 218
M  V30 168 1  75  76
M  V30 169 1  75 219
M  V30 170 1  76 220
M  V30 171 1  77  80
M  V30 172 1  77 223
M  V30 173 1  78  79
M  V30 174 1  79 221
M  V30 175 1  79  80
M  V30 176 1  80 222
M  V30 177 1  81  88
M  V30 178 1  81 229
M  V30 179 1  82  84
M  V30 180 1  82  83
M  V30 181 1  83  85
M  V30 182 1  83 224
M  V30 183 1  84  87
M  V30 184 1  85  86
M  V30 185 1  85 225
M  V30 186 1  86 226
M  V30 187 1  87 227
M  V30 188 1  87  88
M  V30 189 1  88 228
M  V30 190 1  89  90
M  V30 191 1  90  91
M  V30 192 1  90 230
M  V30 193 1  91  92
M  V30 194 1  91 231
M  V30 195 1  92 232
M  V30 196 1  93  96
M  V30 197 1  93 235
M  V30 198 1  94  95
M  V30 199 1  95 233
M  V30 200 1  95  96
M  V30 201 1  96 234
M  V30 202 1  97 104
M  V30 203 1  97 241
M  V30 204 1  98 100
M  V30 205 1  98  99
M  V30 206 1  99 101
M  V30 207 1  99 236
M  V30 208 1 100 103
M  V30 209 1 101 102
M  V30 210 1 101 237
M  V30 211 1 102 238
M  V30 212 1 103 239
M  V30 213 1 103 104
M  V30 214 1 104 240
M  V30 215 1 105 106
M  V30 216 1 106 108
M  V30 217 1 106 244
M  V30 218 1 107 242
M  V30 219 1 107 108
M  V30 220 1 108 243
M  V30 221 1 109 112
M  V30 222 1 109 247
M  V30 223 1 110 111
M  V30 224 1 111 112
M  V30 225 1 111 245
M  V30 226 1 112 246
M  V30 227 1 113 253
M  V30 228 1 113 120
M  V30 229 1 114 115
M  V30 230 1 114 116
M  V30 231 1 115 248
M  V30 232 1 115 117
M  V30 233 1 116 119
M  V30 234 1 117 249
M  V30 235 1 117 118
M  V30 236 1 118 250
M  V30 237 1 119 120
M  V30 238 1 119 251
M  V30 239 1 120 252
M  V30 240 1 121 122
M  V30 241 1 122 256
M  V30 242 1 122 124
M  V30 243 1 123 124
M  V30 244 1 123 254
M  V30 245 1 124 255
M  V30 246 1 125 259
M  V30 247 1 125 128
M  V30 248 1 126 127
M  V30 249 1 127 128
M  V30 250 1 127 257
M  V30 251 1 128 258
M  V30 252 1 129 136
M  V30 253 1 129 265
M  V30 254 1 130 131
M  V30 255 1 130 132
M  V30 256 1 131 133
M  V30 257 1 131 260
M  V30 258 1 132 135
M  V30 259 1 133 261
M  V30 260 1 133 134
M  V30 261 1 134 262
M  V30 262 1 135 263
M  V30 263 1 135 136
M  V30 264 1 136 264
M  V30 265 1 137 138
M  V30 266 1 138 268
M  V30 267 1 138 140
M  V30 268 1 139 140
M  V30 269 1 139 266
M  V30 270 1 140 267
M  V30 271 1 141 271
M  V30 272 1 141 144
M  V30 273 1 142 143
M  V30 274 1 143 269
M  V30 275 1 143 144
M  V30 276 1 144 270
M  V30 277 1 145 151
M  V30 278 1 145 277
M  V30 279 1 146 156
M  V30 280 1 146 147
M  V30 281 1 147 148
M  V30 282 1 147 272
M  V30 283 1 148 149
M  V30 284 1 148 273
M  V30 285 1 149 274
M  V30 286 1 150 156
M  V30 287 1 150 275
M  V30 288 1 150 151
M  V30 289 1 151 276
M  V30 290 1 152 153
M  V30 291 1 153 155
M  V30 292 1 153 280
M  V30 293 1 154 155
M  V30 294 1 154 278
M  V30 295 1 155 279
M  V30 296 1 157 193
M  V30 297 1 158 193
M  V30 298 1 159 193
M  V30 299 1 163 194
M  V30 300 1 164 194
M  V30 301 1 165 194
M  V30 302 1 169 195
M  V30 303 1 170 195
M  V30 304 1 171 195
M  V30 305 1 175 196
M  V30 306 1 176 196
M  V30 307 1 177 196
M  V30 308 1 M   END
M  V30 END BOND
M  V30 END CTAB

