     RDKit          3D

  0  0  0  0  0  0  0  0  0  0999 V3000
M  V30 BEGIN CTAB
M  V30 COUNTS 277 315 0 0 0
M  V30 BEGIN ATOM
M  V30 1 C 19.1800 -2.4010 71.1380 0
M  V30 2 C 19.9140 -2.5590 72.3240 0
M  V30 3 C 18.2230 -3.3760 70.8400 0
M  V30 4 Ti 20.5380 0.0000 71.4790 0
M  V30 5 O 19.4640 -1.3160 70.4050 0
M  V30 6 C 19.7880 -3.6210 73.1990 0
M  V30 7 O 20.7020 -1.5760 72.6080 0
M  V30 8 C 18.0360 -4.4360 71.7290 0
M  V30 9 C 17.3480 -3.4220 69.6160 0
M  V30 10 C 23.2960 0.0250 71.1380 0
M  V30 11 C 19.1370 2.3760 71.1380 0
M  V30 12 C 23.0660 0.7400 72.3240 0
M  V30 13 C 18.6330 1.8200 72.3240 0
M  V30 14 O 21.8200 0.9300 72.6080 0
M  V30 15 O 19.0910 0.6460 72.6080 0
M  V30 16 O 22.2150 -0.2720 70.4050 0
M  V30 17 O 19.9350 1.5880 70.4050 0
M  V30 18 H 20.3410 -3.7170 73.9690 0
M  V30 19 C 18.7990 -4.5340 72.8750 0
M  V30 20 H 17.3760 -5.0960 71.5390 0
M  V30 21 O 16.5120 -4.2330 69.3750 0
M  V30 22 N 17.5340 -2.2860 68.7900 0
M  V30 23 C 24.6190 -0.3170 70.8400 0
M  V30 24 C 18.7720 3.6920 70.8400 0
M  V30 25 C 24.0490 1.1610 73.1990 0
M  V30 26 C 17.7760 2.4600 73.1990 0
M  V30 27 H 18.6410 -5.2590 73.4590 0
M  V30 28 C 16.8380 -1.9050 67.6670 0
M  V30 29 H 18.1860 -1.7470 69.0230 0
M  V30 30 C 25.6300 0.0520 71.7290 0
M  V30 31 C 25.0960 -1.0510 69.6160 0
M  V30 32 C 17.9470 4.3840 71.7290 0
M  V30 33 C 19.1690 4.4730 69.6160 0
M  V30 34 H 23.8560 1.6880 73.9690 0
M  V30 35 C 25.3330 0.7610 72.8750 0
M  V30 36 H 17.4170 2.0290 73.9690 0
M  V30 37 C 17.4810 3.7720 72.8750 0
M  V30 38 C 15.9590 -2.7940 67.0520 0
M  V30 39 C 17.0060 -0.6600 67.1160 0
M  V30 40 H 26.5320 -0.1900 71.5390 0
M  V30 41 O 26.2160 -1.3700 69.3750 0
M  V30 42 N 24.0190 -1.4580 68.7900 0
M  V30 43 H 17.7060 5.2860 71.5390 0
M  V30 44 O 18.8850 5.6030 69.3750 0
M  V30 45 N 20.0600 3.7440 68.7900 0
M  V30 46 H 26.0410 0.9870 73.4590 0
M  V30 47 H 16.9310 4.2720 73.4590 0
M  V30 48 H 15.8700 -3.6850 67.3750 0
M  V30 49 C 15.2130 -2.3530 65.9590 0
M  V30 50 C 16.1720 -0.1800 66.0860 0
M  V30 51 C 18.0150 0.1760 67.6360 0
M  V30 52 C 24.0370 -2.2520 67.6670 0
M  V30 53 H 23.2260 -1.1630 69.0230 0
M  V30 54 C 20.7380 4.1570 67.6670 0
M  V30 55 H 20.2010 2.9100 69.0230 0
M  V30 56 H 14.6370 -2.9740 65.5220 0
M  V30 57 C 15.2690 -1.0620 65.4710 0
M  V30 58 C 16.2480 1.1290 65.6600 0
M  V30 59 H 18.6180 -0.1570 68.2920 0
M  V30 60 C 18.1290 1.4980 67.1860 0
M  V30 61 C 25.2470 -2.5680 67.0520 0
M  V30 62 C 22.8750 -2.7280 67.1160 0
M  V30 63 C 20.4070 5.3630 67.0520 0
M  V30 64 C 21.7320 3.3880 67.1160 0
M  V30 65 H 14.7190 -0.7830 64.7570 0
M  V30 66 C 17.2540 1.9280 66.1860 0
M  V30 67 N 15.3030 1.7110 64.8150 0
M  V30 68 H 18.7820 2.0850 67.5440 0
M  V30 69 H 26.0640 -2.2000 67.3750 0
M  V30 70 C 25.2380 -3.4350 65.9590 0
M  V30 71 C 22.8760 -3.6910 66.0860 0
M  V30 72 C 21.6470 -2.2730 67.6360 0
M  V30 73 H 19.6800 5.8850 67.3750 0
M  V30 74 C 21.1620 5.7880 65.9590 0
M  V30 75 C 22.5650 3.8700 66.0860 0
M  V30 76 C 21.9520 2.0970 67.6360 0
M  V30 77 H 17.3510 2.8120 65.8450 0
M  V30 78 H 15.1490 1.1990 64.1110 0
M  V30 79 C 14.5580 2.8330 64.7660 0
M  V30 80 H 26.0630 -3.6230 65.5220 0
M  V30 81 C 24.0920 -4.0320 65.4710 0
M  V30 82 C 21.7040 -4.2790 65.6600 0
M  V30 83 H 21.6330 -1.5850 68.2920 0
M  V30 84 C 20.4450 -2.8350 67.1860 0
M  V30 85 H 20.9130 6.5970 65.5220 0
M  V30 86 C 22.2530 5.0940 65.4710 0
M  V30 87 C 23.6610 3.1500 65.6600 0
M  V30 88 H 21.3620 1.7410 68.2920 0
M  V30 89 C 23.0390 1.3380 67.1860 0
M  V30 90 C 13.7170 3.1340 63.7870 0
M  V30 91 O 14.9370 3.6030 65.8280 0
M  V30 92 H 24.1250 -4.6480 64.7570 0
M  V30 93 C 20.5100 -3.8080 66.1860 0
M  V30 94 N 21.6740 -5.3890 64.8150 0
M  V30 95 H 19.6110 -2.5630 67.5440 0
M  V30 96 H 22.7690 5.4300 64.7570 0
M  V30 97 C 23.8500 1.8800 66.1860 0
M  V30 98 N 24.6370 3.6780 64.8150 0
M  V30 99 H 23.2210 0.4780 67.5440 0
M  V30 100 C 13.0990 4.4070 63.9190 0
M  V30 101 C 13.3620 2.3620 62.7410 0
M  V30 102 H 19.6960 -4.1660 65.8450 0
M  V30 103 H 22.1940 -5.2670 64.1110 0
M  V30 104 C 21.0740 -6.5950 64.7660 0
M  V30 105 H 24.5660 1.3540 65.8450 0
M  V30 106 H 24.2710 4.0680 64.1110 0
M  V30 107 C 25.9810 3.7620 64.7660 0
M  V30 108 H 13.2950 5.0180 64.6210 0
M  V30 109 C 12.2060 4.6560 62.9370 0
M  V30 110 C 12.4690 2.6500 61.8170 0
M  V30 111 O 13.9600 1.1030 62.4830 0
M  V30 112 C 21.2340 -7.4740 63.7870 0
M  V30 113 O 20.2170 -6.6520 65.8280 0
M  V30 114 C 26.6620 4.3400 63.7870 0
M  V30 115 O 26.4590 3.0490 65.8280 0
M  V30 116 H 11.7590 5.4910 63.0230 0
M  V30 117 C 11.8430 3.9400 61.8830 0
M  V30 118 Ti 13.1770 0.0500 61.0160 0
M  V30 119 O 12.1950 1.7610 60.8120 0
M  V30 120 C 20.4400 -8.6460 63.9190 0
M  V30 121 C 22.0800 -7.3960 62.7410 0
M  V30 122 C 28.0740 4.2380 63.9190 0
M  V30 123 C 26.1710 5.0340 62.7410 0
M  V30 124 H 11.2260 4.2510 61.2390 0
M  V30 125 C 13.2620 -2.3640 62.4300 0
M  V30 126 C 11.9780 -1.9140 62.5440 0
M  V30 127 C 14.5030 0.1440 58.5410 0
M  V30 128 C 13.2310 -0.5250 58.3150 0
M  V30 129 O 14.6960 0.4360 59.8370 0
M  V30 130 O 14.0320 -1.5740 61.7520 0
M  V30 131 O 12.4910 -0.6620 59.3860 0
M  V30 132 O 11.6790 -0.7060 61.9980 0
M  V30 133 H 19.8140 -8.7810 64.6210 0
M  V30 134 C 20.6710 -9.5440 62.9370 0
M  V30 135 C 22.2770 -8.3130 61.8170 0
M  V30 136 O 22.8720 -6.2480 62.4830 0
M  V30 137 H 28.5040 3.7640 64.6210 0
M  V30 138 C 28.7360 4.8880 62.9370 0
M  V30 139 C 26.8680 5.6630 61.8170 0
M  V30 140 O 24.7820 5.1460 62.4830 0
M  V30 141 C 13.5540 -3.6020 62.9400 0
M  V30 142 C 10.9690 -2.6930 63.2720 0
M  V30 143 C 15.3880 0.3650 57.4880 0
M  V30 144 C 12.9170 -0.9120 57.0200 0
M  V30 145 H 20.1720 -10.3480 63.0230 0
M  V30 146 C 21.4730 -9.5000 61.8830 0
M  V30 147 Ti 24.1750 -6.3990 61.0160 0
M  V30 148 O 23.1840 -8.1050 60.8120 0
M  V30 149 H 29.6820 4.8570 63.0230 0
M  V30 150 C 28.2970 5.5600 61.8830 0
M  V30 151 Ti 24.2610 6.3500 61.0160 0
M  V30 152 O 26.2340 6.3440 60.8120 0
M  V30 153 C 12.6350 -4.3220 63.6590 0
M  V30 154 C 14.9360 -4.2240 62.7940 0
M  V30 155 H 10.0710 -2.3960 63.3290 0
M  V30 156 C 11.3620 -3.8560 63.8610 0
M  V30 157 C 15.0520 -0.0430 56.1860 0
M  V30 158 C 16.6750 1.0560 57.5860 0
M  V30 159 H 12.0670 -1.2930 56.8200 0
M  V30 160 C 13.8500 -0.7420 56.0140 0
M  V30 161 H 21.5120 -10.1900 61.2390 0
M  V30 162 C 26.2230 -5.1190 62.4300 0
M  V30 163 C 26.4750 -6.4560 62.5440 0
M  V30 164 C 23.4310 -5.2990 58.5410 0
M  V30 165 C 24.6450 -6.0650 58.3150 0
M  V30 166 O 23.0810 -5.2770 59.8370 0
M  V30 167 O 25.1540 -4.8470 61.7520 0
M  V30 168 O 25.1340 -6.6380 59.3860 0
M  V30 169 O 25.5790 -7.3190 61.9980 0
M  V30 170 H 28.8750 5.9390 61.2390 0
M  V30 171 C 22.1280 7.4830 62.4300 0
M  V30 172 C 23.1600 8.3700 62.5440 0
M  V30 173 C 23.6800 5.1540 58.5410 0
M  V30 174 C 23.7370 6.5900 58.3150 0
M  V30 175 O 23.8360 4.8410 59.8370 0
M  V30 176 O 22.4270 6.4210 61.7520 0
M  V30 177 O 23.9880 7.2990 59.3860 0
M  V30 178 O 24.3560 8.0250 61.9980 0
M  V30 179 H 12.8860 -5.1630 64.0260 0
M  V30 180 O 15.1180 -5.3860 63.2170 0
M  V30 181 N 15.8390 -3.5110 62.1990 0
M  V30 182 H 10.7570 -4.3420 64.4170 0
M  V30 183 H 15.6190 0.1490 55.4430 0
M  V30 184 O 17.4160 1.1880 56.6290 0
M  V30 185 N 16.9870 1.5260 58.7930 0
M  V30 186 H 13.6660 -1.1170 55.1540 0
M  V30 187 C 27.1490 -4.2470 62.9400 0
M  V30 188 C 27.6540 -6.9400 63.2720 0
M  V30 189 C 22.7970 -4.6420 57.4880 0
M  V30 190 C 25.1380 -6.1430 57.0200 0
M  V30 191 C 20.9110 7.8490 62.9400 0
M  V30 192 C 22.9900 9.6330 63.2720 0
M  V30 193 C 23.4280 4.2780 57.4880 0
M  V30 194 C 23.5580 7.0560 57.0200 0
M  V30 195 C 17.1620 -3.9570 61.8610 0
M  V30 196 H 15.6250 -2.6860 61.9870 0
M  V30 197 C 18.0580 2.3960 59.2200 0
M  V30 198 H 16.4490 1.2630 59.4370 0
M  V30 199 C 28.2320 -4.6830 63.6590 0
M  V30 200 C 26.9970 -2.7390 62.7940 0
M  V30 201 H 27.8460 -7.8670 63.3290 0
M  V30 202 C 28.4650 -6.0190 63.8610 0
M  V30 203 C 23.3180 -4.7290 56.1860 0
M  V30 204 C 21.5540 -3.8740 57.5860 0
M  V30 205 H 25.8930 -6.6890 56.8200 0
M  V30 206 C 24.5240 -5.4210 56.0140 0
M  V30 207 C 20.7460 9.0050 63.6590 0
M  V30 208 C 19.6800 6.9630 62.7940 0
M  V30 209 H 23.6970 10.2630 63.3290 0
M  V30 210 C 21.7870 9.8750 63.8610 0
M  V30 211 C 23.2440 4.7720 56.1860 0
M  V30 212 C 23.3840 2.8170 57.5860 0
M  V30 213 H 23.6530 7.9820 56.8200 0
M  V30 214 C 23.2400 6.1630 56.0140 0
M  V30 215 C 17.7910 -4.8400 62.6700 0
M  V30 216 C 17.8090 -3.3700 60.7270 0
M  V30 217 C 17.9310 3.1460 60.3410 0
M  V30 218 C 19.2560 2.4220 58.4280 0
M  V30 219 H 28.8350 -4.0450 64.0260 0
M  V30 220 O 27.9120 -2.0010 63.2170 0
M  V30 221 N 25.9280 -2.3140 62.1990 0
M  V30 222 H 29.1880 -6.3000 64.4170 0
M  V30 223 H 22.8680 -4.3350 55.4430 0
M  V30 224 O 21.0700 -3.2980 56.6290 0
M  V30 225 N 20.9920 -3.8380 58.7930 0
M  V30 226 H 24.9410 -5.3930 55.1540 0
M  V30 227 H 19.8920 9.2080 64.0260 0
M  V30 228 O 18.5840 7.3870 63.2170 0
M  V30 229 N 19.8470 5.8250 62.1990 0
M  V30 230 H 21.6680 10.6420 64.4170 0
M  V30 231 H 23.1270 4.1850 55.4430 0
M  V30 232 O 23.1280 2.1090 56.6290 0
M  V30 233 N 23.6350 2.3120 58.7930 0
M  V30 234 H 23.0060 6.5100 55.1540 0
M  V30 235 H 17.3880 -5.1490 63.4820 0
M  V30 236 C 19.0800 -5.2860 62.2650 0
M  V30 237 C 19.1170 -3.8310 60.3410 0
M  V30 238 C 17.1740 -2.3900 59.8740 0
M  V30 239 C 16.7560 3.1610 61.1440 0
M  V30 240 C 18.9830 4.0480 60.7270 0
M  V30 241 C 20.2650 3.3220 58.8070 0
M  V30 242 C 25.6530 -0.9440 61.8610 0
M  V30 243 H 25.3200 -2.9120 61.9870 0
M  V30 244 C 19.7030 -3.3460 59.2200 0
M  V30 245 H 21.4890 -4.1730 59.4370 0
M  V30 246 C 18.7980 4.9020 61.8610 0
M  V30 247 H 20.6680 5.5970 61.9870 0
M  V30 248 C 23.8530 0.9500 59.2200 0
M  V30 249 H 23.6760 2.9100 59.4370 0
M  V30 250 H 19.5320 -5.9170 62.8190 0
M  V30 251 C 19.6920 -4.8560 61.1440 0
M  V30 252 H 16.2950 -2.0950 60.0830 0
M  V30 253 C 17.7970 -1.8980 58.8070 0
M  V30 254 C 16.6890 3.9060 62.2650 0
M  V30 255 H 16.0060 2.6380 60.8820 0
M  V30 256 C 20.1500 4.1090 59.8740 0
M  V30 257 H 21.0540 3.3700 58.2810 0
M  V30 258 C 26.1030 0.0410 62.6700 0
M  V30 259 C 24.8210 -0.6780 60.7270 0
M  V30 260 C 19.0810 -2.3210 58.4280 0
M  V30 261 C 17.7200 4.7990 62.6700 0
M  V30 262 C 24.5660 0.6850 60.3410 0
M  V30 263 C 23.2770 -0.1010 58.4280 0
M  V30 264 H 20.5190 -5.2430 60.8820 0
M  V30 265 H 17.3610 -1.2380 58.2810 0
M  V30 266 H 15.9160 3.8290 62.8190 0
M  V30 267 H 20.8450 4.7220 60.0830 0
M  V30 268 H 26.5720 -0.1530 63.4820 0
M  V30 269 C 25.8450 1.3800 62.2650 0
M  V30 270 C 24.2900 -1.7180 59.8740 0
M  V30 271 H 17.6530 5.3020 63.4820 0
M  V30 272 C 25.1660 1.6950 61.1440 0
M  V30 273 C 23.5520 -1.4250 58.8070 0
M  V30 274 H 26.1650 2.0880 62.8190 0
M  V30 275 H 24.4740 -2.6270 60.0830 0
M  V30 276 H 25.0880 2.6060 60.8820 0
M  V30 277 H 23.1980 -2.1330 58.2810 0
M  V30 END ATOM
M  V30 BEGIN BOND
M  V30 1 1   1   5
M  V30 2 1   1   3
M  V30 3 1   1   2
M  V30 4 1   2   7
M  V30 5 1   2   6
M  V30 6 1   3   9
M  V30 7 1   3   8
M  V30 8 1   4  16
M  V30 9 1   4  17
M  V30 10 1   4   5
M  V30 11 1   4  14
M  V30 12 1   4  15
M  V30 13 1   4   7
M  V30 14 1   6  19
M  V30 15 1   6  18
M  V30 16 1   8  20
M  V30 17 1   8  19
M  V30 18 1   9  22
M  V30 19 1   9  21
M  V30 20 1  10  16
M  V30 21 1  10  23
M  V30 22 1  10  12
M  V30 23 1  11  17
M  V30 24 1  11  24
M  V30 25 1  11  13
M  V30 26 1  12  14
M  V30 27 1  12  25
M  V30 28 1  13  15
M  V30 29 1  13  26
M  V30 30 1  19  27
M  V30 31 1  22  28
M  V30 32 1  22  29
M  V30 33 1  23  31
M  V30 34 1  23  30
M  V30 35 1  24  33
M  V30 36 1  24  32
M  V30 37 1  25  35
M  V30 38 1  25  34
M  V30 39 1  26  37
M  V30 40 1  26  36
M  V30 41 1  28  38
M  V30 42 1  28  39
M  V30 43 1  30  40
M  V30 44 1  30  35
M  V30 45 1  31  42
M  V30 46 1  31  41
M  V30 47 1  32  43
M  V30 48 1  32  37
M  V30 49 1  33  45
M  V30 50 1  33  44
M  V30 51 1  35  46
M  V30 52 1  37  47
M  V30 53 1  38  49
M  V30 54 1  38  48
M  V30 55 1  39  50
M  V30 56 1  39  51
M  V30 57 1  42  52
M  V30 58 1  42  53
M  V30 59 1  45  54
M  V30 60 1  45  55
M  V30 61 1  49  57
M  V30 62 1  49  56
M  V30 63 1  50  57
M  V30 64 1  50  58
M  V30 65 1  51  60
M  V30 66 1  51  59
M  V30 67 1  52  61
M  V30 68 1  52  62
M  V30 69 1  54  63
M  V30 70 1  54  64
M  V30 71 1  57  65
M  V30 72 1  58  67
M  V30 73 1  58  66
M  V30 74 1  60  66
M  V30 75 1  60  68
M  V30 76 1  61  70
M  V30 77 1  61  69
M  V30 78 1  62  71
M  V30 79 1  62  72
M  V30 80 1  63  74
M  V30 81 1  63  73
M  V30 82 1  64  75
M  V30 83 1  64  76
M  V30 84 1  66  77
M  V30 85 1  67  78
M  V30 86 1  67  79
M  V30 87 1  70  81
M  V30 88 1  70  80
M  V30 89 1  71  81
M  V30 90 1  71  82
M  V30 91 1  72  84
M  V30 92 1  72  83
M  V30 93 1  74  86
M  V30 94 1  74  85
M  V30 95 1  75  86
M  V30 96 1  75  87
M  V30 97 1  76  89
M  V30 98 1  76  88
M  V30 99 1  79  90
M  V30 100 1  79  91
M  V30 101 1  81  92
M  V30 102 1  82  94
M  V30 103 1  82  93
M  V30 104 1  84  93
M  V30 105 1  84  95
M  V30 106 1  86  96
M  V30 107 1  87  98
M  V30 108 1  87  97
M  V30 109 1  89  97
M  V30 110 1  89  99
M  V30 111 1  90 101
M  V30 112 1  90 100
M  V30 113 1  93 102
M  V30 114 1  94 103
M  V30 115 1  94 104
M  V30 116 1  97 105
M  V30 117 1  98 106
M  V30 118 1  98 107
M  V30 119 1 100 109
M  V30 120 1 100 108
M  V30 121 1 101 110
M  V30 122 1 101 111
M  V30 123 1 104 112
M  V30 124 1 104 113
M  V30 125 1 107 114
M  V30 126 1 107 115
M  V30 127 1 109 117
M  V30 128 1 109 116
M  V30 129 1 110 119
M  V30 130 1 110 117
M  V30 131 1 111 118
M  V30 132 1 112 121
M  V30 133 1 112 120
M  V30 134 1 114 123
M  V30 135 1 114 122
M  V30 136 1 117 124
M  V30 137 1 118 131
M  V30 138 1 118 129
M  V30 139 1 118 119
M  V30 140 1 118 130
M  V30 141 1 118 132
M  V30 142 1 120 134
M  V30 143 1 120 133
M  V30 144 1 121 135
M  V30 145 1 121 136
M  V30 146 1 122 138
M  V30 147 1 122 137
M  V30 148 1 123 139
M  V30 149 1 123 140
M  V30 150 1 125 130
M  V30 151 1 125 126
M  V30 152 1 125 141
M  V30 153 1 126 132
M  V30 154 1 126 142
M  V30 155 1 127 143
M  V30 156 1 127 128
M  V30 157 1 127 129
M  V30 158 1 128 144
M  V30 159 1 128 131
M  V30 160 1 134 146
M  V30 161 1 134 145
M  V30 162 1 135 148
M  V30 163 1 135 146
M  V30 164 1 136 147
M  V30 165 1 138 150
M  V30 166 1 138 149
M  V30 167 1 139 152
M  V30 168 1 139 150
M  V30 169 1 140 151
M  V30 170 1 141 154
M  V30 171 1 141 153
M  V30 172 1 142 155
M  V30 173 1 142 156
M  V30 174 1 143 157
M  V30 175 1 143 158
M  V30 176 1 144 160
M  V30 177 1 144 159
M  V30 178 1 146 161
M  V30 179 1 147 168
M  V30 180 1 147 166
M  V30 181 1 147 148
M  V30 182 1 147 167
M  V30 183 1 147 169
M  V30 184 1 150 170
M  V30 185 1 151 177
M  V30 186 1 151 175
M  V30 187 1 151 152
M  V30 188 1 151 176
M  V30 189 1 151 178
M  V30 190 1 153 156
M  V30 191 1 153 179
M  V30 192 1 154 181
M  V30 193 1 154 180
M  V30 194 1 156 182
M  V30 195 1 157 183
M  V30 196 1 157 160
M  V30 197 1 158 184
M  V30 198 1 158 185
M  V30 199 1 160 186
M  V30 200 1 162 167
M  V30 201 1 162 163
M  V30 202 1 162 187
M  V30 203 1 163 169
M  V30 204 1 163 188
M  V30 205 1 164 189
M  V30 206 1 164 165
M  V30 207 1 164 166
M  V30 208 1 165 190
M  V30 209 1 165 168
M  V30 210 1 171 176
M  V30 211 1 171 172
M  V30 212 1 171 191
M  V30 213 1 172 178
M  V30 214 1 172 192
M  V30 215 1 173 193
M  V30 216 1 173 174
M  V30 217 1 173 175
M  V30 218 1 174 194
M  V30 219 1 174 177
M  V30 220 1 181 195
M  V30 221 1 181 196
M  V30 222 1 185 197
M  V30 223 1 185 198
M  V30 224 1 187 200
M  V30 225 1 187 199
M  V30 226 1 188 201
M  V30 227 1 188 202
M  V30 228 1 189 203
M  V30 229 1 189 204
M  V30 230 1 190 206
M  V30 231 1 190 205
M  V30 232 1 191 208
M  V30 233 1 191 207
M  V30 234 1 192 209
M  V30 235 1 192 210
M  V30 236 1 193 211
M  V30 237 1 193 212
M  V30 238 1 194 214
M  V30 239 1 194 213
M  V30 240 1 195 216
M  V30 241 1 195 215
M  V30 242 1 197 218
M  V30 243 1 197 217
M  V30 244 1 199 202
M  V30 245 1 199 219
M  V30 246 1 200 221
M  V30 247 1 200 220
M  V30 248 1 202 222
M  V30 249 1 203 223
M  V30 250 1 203 206
M  V30 251 1 204 224
M  V30 252 1 204 225
M  V30 253 1 206 226
M  V30 254 1 207 210
M  V30 255 1 207 227
M  V30 256 1 208 229
M  V30 257 1 208 228
M  V30 258 1 210 230
M  V30 259 1 211 231
M  V30 260 1 211 214
M  V30 261 1 212 232
M  V30 262 1 212 233
M  V30 263 1 214 234
M  V30 264 1 215 236
M  V30 265 1 215 235
M  V30 266 1 216 238
M  V30 267 1 216 237
M  V30 268 1 217 240
M  V30 269 1 217 239
M  V30 270 1 218 241
M  V30 271 1 221 242
M  V30 272 1 221 243
M  V30 273 1 225 244
M  V30 274 1 225 245
M  V30 275 1 229 246
M  V30 276 1 229 247
M  V30 277 1 233 248
M  V30 278 1 233 249
M  V30 279 1 236 251
M  V30 280 1 236 250
M  V30 281 1 237 244
M  V30 282 1 237 251
M  V30 283 1 238 253
M  V30 284 1 238 252
M  V30 285 1 239 255
M  V30 286 1 239 254
M  V30 287 1 240 256
M  V30 288 1 240 246
M  V30 289 1 241 257
M  V30 290 1 241 256
M  V30 291 1 242 259
M  V30 292 1 242 258
M  V30 293 1 244 260
M  V30 294 1 246 261
M  V30 295 1 248 263
M  V30 296 1 248 262
M  V30 297 1 251 264
M  V30 298 1 253 265
M  V30 299 1 253 260
M  V30 300 1 254 261
M  V30 301 1 254 266
M  V30 302 1 256 267
M  V30 303 1 258 269
M  V30 304 1 258 268
M  V30 305 1 259 270
M  V30 306 1 259 262
M  V30 307 1 261 271
M  V30 308 1 262 272
M  V30 309 1 263 273
M  V30 310 1 269 272
M  V30 311 1 269 274
M  V30 312 1 270 273
M  V30 313 1 270 275
M  V30 314 1 272 276
M  V30 315 1 273 277
M  V30 316 1 M   END
M  V30 END BOND
M  V30 END CTAB

