     RDKit          3D

  0  0  0  0  0  0  0  0  0  0999 V3000
M  V30 BEGIN CTAB
M  V30 COUNTS 278 304 0 0 0
M  V30 BEGIN ATOM
M  V30 1 Ga 23.2040 23.2040 14.2990 0
M  V30 2 O 21.3020 22.9520 13.9620 0
M  V30 3 O 23.5410 21.3020 14.5510 0
M  V30 4 O 22.9520 23.5410 16.2010 0
M  V30 5 O 22.8570 25.0600 13.8390 0
M  V30 6 O 23.6640 22.8570 12.4430 0
M  V30 7 O 25.0600 23.6640 14.6460 0
M  V30 8 C 20.7170 24.1020 13.4360 0
M  V30 9 C 24.0670 20.7170 13.4010 0
M  V30 10 C 24.1020 24.0670 16.7860 0
M  V30 11 C 21.5370 25.2120 13.4060 0
M  V30 12 C 24.0970 21.5370 12.2910 0
M  V30 13 C 25.2120 24.0970 15.9660 0
M  V30 14 C 19.4170 24.1620 13.0110 0
M  V30 15 C 24.4920 19.4170 13.3410 0
M  V30 16 C 24.1620 24.4920 18.0860 0
M  V30 17 C 20.9970 26.4120 12.9710 0
M  V30 18 C 24.5320 20.9970 11.0910 0
M  V30 19 C 26.4120 24.5320 16.5060 0
M  V30 20 C 18.9220 25.3570 12.5510 0
M  V30 21 C 18.6310 22.9520 12.8060 0
M  V30 22 C 24.9520 18.9220 12.1460 0
M  V30 23 C 24.6970 18.6310 14.5510 0
M  V30 24 C 25.3570 24.9520 18.5810 0
M  V30 25 C 22.9520 24.6970 18.8720 0
M  V30 26 H 21.5420 27.1920 12.9560 0
M  V30 27 C 19.6720 26.5020 12.5510 0
M  V30 28 H 24.5470 21.5420 10.3110 0
M  V30 29 C 24.9520 19.6720 11.0010 0
M  V30 30 C 26.5020 24.9520 17.8310 0
M  V30 31 H 18.0310 25.3870 12.2210 0
M  V30 32 O 17.4160 23.1350 12.2910 0
M  V30 33 N 18.9770 21.7570 13.2460 0
M  V30 34 H 25.2820 18.0310 12.1160 0
M  V30 35 O 25.2120 17.4160 14.3680 0
M  V30 36 N 24.2570 18.9770 15.7460 0
M  V30 37 H 25.3870 25.2820 19.4720 0
M  V30 38 O 23.1350 25.2120 20.0870 0
M  V30 39 N 21.7570 24.2570 18.5260 0
M  V30 40 H 19.2970 27.3320 12.2810 0
M  V30 41 H 25.2220 19.2970 10.1710 0
M  V30 42 H 19.7570 21.7420 13.6560 0
M  V30 43 C 18.3710 20.5520 13.1960 0
M  V30 44 H 23.8470 19.7570 15.7610 0
M  V30 45 C 24.3070 18.3710 16.9510 0
M  V30 46 H 21.7420 23.8470 17.7460 0
M  V30 47 C 20.5520 24.3070 19.1320 0
M  V30 48 C 19.0770 19.3470 13.1810 0
M  V30 49 C 17.0010 20.5170 13.1760 0
M  V30 50 C 24.3220 19.0770 18.1560 0
M  V30 51 C 24.3270 17.0010 16.9860 0
M  V30 52 C 19.3470 24.3220 18.4260 0
M  V30 53 C 20.5170 24.3270 20.5020 0
M  V30 54 C 18.4260 18.1560 13.1810 0
M  V30 55 C 20.4270 19.3920 13.1260 0
M  V30 56 H 16.4960 21.3220 13.1960 0
M  V30 57 C 16.3660 19.2820 13.1160 0
M  V30 58 C 24.3220 18.4260 19.3470 0
M  V30 59 C 24.3770 20.4270 18.1110 0
M  V30 60 H 24.3070 16.4960 16.1810 0
M  V30 61 C 24.3870 16.3660 18.2210 0
M  V30 62 C 18.1560 24.3220 19.0770 0
M  V30 63 C 19.3920 24.3770 17.0760 0
M  V30 64 H 21.3220 24.3070 21.0070 0
M  V30 65 C 19.2820 24.3870 21.1370 0
M  V30 66 C 19.1320 16.9510 13.1960 0
M  V30 67 C 17.0760 18.1110 13.1260 0
M  V30 68 C 21.1370 18.2210 13.1160 0
M  V30 69 H 20.8770 20.2270 13.1010 0
M  V30 70 H 15.4210 19.2470 13.0660 0
M  V30 71 C 24.3070 19.1320 20.5520 0
M  V30 72 C 24.3770 17.0760 19.3920 0
M  V30 73 C 24.3870 21.1370 19.2820 0
M  V30 74 H 24.4020 20.8770 17.2760 0
M  V30 75 H 24.4370 15.4210 18.2560 0
M  V30 76 C 16.9510 24.3070 18.3710 0
M  V30 77 C 18.1110 24.3770 20.4270 0
M  V30 78 C 18.2210 24.3870 16.3660 0
M  V30 79 H 20.2270 24.4020 16.6260 0
M  V30 80 H 19.2470 24.4370 22.0820 0
M  V30 81 N 18.5260 15.7460 13.2460 0
M  V30 82 C 20.5020 16.9860 13.1760 0
M  V30 83 H 16.6260 17.2760 13.1010 0
M  V30 84 H 22.0820 18.2560 13.0660 0
M  V30 85 N 24.2570 18.5260 21.7570 0
M  V30 86 C 24.3270 20.5020 20.5170 0
M  V30 87 H 24.4020 16.6260 20.2270 0
M  V30 88 H 24.4370 22.0820 19.2470 0
M  V30 89 N 15.7460 24.2570 18.9770 0
M  V30 90 C 16.9860 24.3270 17.0010 0
M  V30 91 H 17.2760 24.4020 20.8770 0
M  V30 92 H 18.2560 24.4370 15.4210 0
M  V30 93 H 17.7460 15.7610 13.6560 0
M  V30 94 C 18.8720 14.5510 12.8060 0
M  V30 95 H 21.0070 16.1810 13.1960 0
M  V30 96 H 23.8470 17.7460 21.7420 0
M  V30 97 C 24.6970 18.8720 22.9520 0
M  V30 98 H 24.3070 21.0070 21.3220 0
M  V30 99 H 15.7610 23.8470 19.7570 0
M  V30 100 C 14.5510 24.6970 18.6310 0
M  V30 101 H 16.1810 24.3070 16.4960 0
M  V30 102 O 20.0870 14.3680 12.2910 0
M  V30 103 C 18.0860 13.3410 13.0110 0
M  V30 104 O 25.2120 20.0870 23.1350 0
M  V30 105 C 24.4920 18.0860 24.1620 0
M  V30 106 O 14.3680 25.2120 17.4160 0
M  V30 107 C 13.3410 24.4920 19.4170 0
M  V30 108 C 16.7860 13.4010 13.4360 0
M  V30 109 C 18.5810 12.1460 12.5510 0
M  V30 110 C 24.0670 16.7860 24.1020 0
M  V30 111 C 24.9520 18.5810 25.3570 0
M  V30 112 C 13.4010 24.0670 20.7170 0
M  V30 113 C 12.1460 24.9520 18.9220 0
M  V30 114 Ga 14.2990 14.2990 14.2990 0
M  V30 115 O 16.2010 14.5510 13.9620 0
M  V30 116 C 15.9660 12.2910 13.4060 0
M  V30 117 C 17.8310 11.0010 12.5510 0
M  V30 118 H 19.4720 12.1160 12.2210 0
M  V30 119 Ga 23.2040 14.2990 23.2040 0
M  V30 120 O 23.5410 16.2010 22.9520 0
M  V30 121 C 24.0970 15.9660 25.2120 0
M  V30 122 C 24.9520 17.8310 26.5020 0
M  V30 123 H 25.2820 19.4720 25.3870 0
M  V30 124 Ga 14.2990 23.2040 23.2040 0
M  V30 125 O 14.5510 23.5410 21.3020 0
M  V30 126 C 12.2910 24.0970 21.5370 0
M  V30 127 C 11.0010 24.9520 19.6720 0
M  V30 128 H 12.1160 25.2820 18.0310 0
M  V30 129 O 13.9620 16.2010 14.5510 0
M  V30 130 O 14.5510 13.9620 16.2010 0
M  V30 131 O 14.6460 12.4430 13.8390 0
M  V30 132 O 13.8390 14.6460 12.4430 0
M  V30 133 O 12.4430 13.8390 14.6460 0
M  V30 134 C 13.4360 16.7860 13.4010 0
M  V30 135 C 13.4010 13.4360 16.7860 0
M  V30 136 C 13.4060 15.9660 12.2910 0
M  V30 137 C 12.2910 13.4060 15.9660 0
M  V30 138 C 16.5060 11.0910 12.9710 0
M  V30 139 H 18.2060 10.1710 12.2810 0
M  V30 140 O 21.3020 14.5510 23.5410 0
M  V30 141 O 22.9520 13.9620 21.3020 0
M  V30 142 O 22.8570 12.4430 23.6640 0
M  V30 143 O 25.0600 13.8390 22.8570 0
M  V30 144 O 23.6640 14.6460 25.0600 0
M  V30 145 C 20.7170 13.4010 24.0670 0
M  V30 146 C 24.1020 13.4360 20.7170 0
M  V30 147 C 21.5370 12.2910 24.0970 0
M  V30 148 C 25.2120 13.4060 21.5370 0
M  V30 149 C 24.5320 16.5060 26.4120 0
M  V30 150 H 25.2220 18.2060 27.3320 0
M  V30 151 O 16.2010 22.9520 23.5410 0
M  V30 152 O 13.9620 21.3020 22.9520 0
M  V30 153 O 14.6460 25.0600 23.6640 0
M  V30 154 O 13.8390 22.8570 25.0600 0
M  V30 155 O 12.4430 23.6640 22.8570 0
M  V30 156 C 16.7860 24.1020 24.0670 0
M  V30 157 C 13.4360 20.7170 24.1020 0
M  V30 158 C 15.9660 25.2120 24.0970 0
M  V30 159 C 13.4060 21.5370 25.2120 0
M  V30 160 C 11.0910 24.5320 20.9970 0
M  V30 161 H 10.1710 25.2220 19.2970 0
M  V30 162 C 13.0110 18.0860 13.3410 0
M  V30 163 C 13.3410 13.0110 18.0860 0
M  V30 164 C 12.9710 16.5060 11.0910 0
M  V30 165 C 11.0910 12.9710 16.5060 0
M  V30 166 H 15.9610 10.3110 12.9560 0
M  V30 167 C 19.4170 13.3410 24.4920 0
M  V30 168 C 24.1620 13.0110 19.4170 0
M  V30 169 C 20.9970 11.0910 24.5320 0
M  V30 170 C 26.4120 12.9710 20.9970 0
M  V30 171 H 24.5470 15.9610 27.1920 0
M  V30 172 C 18.0860 24.1620 24.4920 0
M  V30 173 C 13.0110 19.4170 24.1620 0
M  V30 174 C 16.5060 26.4120 24.5320 0
M  V30 175 C 12.9710 20.9970 26.4120 0
M  V30 176 H 10.3110 24.5470 21.5420 0
M  V30 177 C 12.5510 18.5810 12.1460 0
M  V30 178 C 12.8060 18.8720 14.5510 0
M  V30 179 C 12.1460 12.5510 18.5810 0
M  V30 180 C 14.5510 12.8060 18.8720 0
M  V30 181 H 12.9560 15.9610 10.3110 0
M  V30 182 C 12.5510 17.8310 11.0010 0
M  V30 183 H 10.3110 12.9560 15.9610 0
M  V30 184 C 11.0010 12.5510 17.8310 0
M  V30 185 C 18.9220 12.1460 24.9520 0
M  V30 186 C 18.6310 14.5510 24.6970 0
M  V30 187 C 25.3570 12.5510 18.9220 0
M  V30 188 C 22.9520 12.8060 18.6310 0
M  V30 189 H 21.5420 10.3110 24.5470 0
M  V30 190 C 19.6720 11.0010 24.9520 0
M  V30 191 H 27.1920 12.9560 21.5420 0
M  V30 192 C 26.5020 12.5510 19.6720 0
M  V30 193 C 18.5810 25.3570 24.9520 0
M  V30 194 C 18.8720 22.9520 24.6970 0
M  V30 195 C 12.5510 18.9220 25.3570 0
M  V30 196 C 12.8060 18.6310 22.9520 0
M  V30 197 H 15.9610 27.1920 24.5470 0
M  V30 198 C 17.8310 26.5020 24.9520 0
M  V30 199 H 12.9560 21.5420 27.1920 0
M  V30 200 C 12.5510 19.6720 26.5020 0
M  V30 201 H 12.2210 19.4720 12.1160 0
M  V30 202 O 12.2910 20.0870 14.3680 0
M  V30 203 N 13.2460 18.5260 15.7460 0
M  V30 204 H 12.1160 12.2210 19.4720 0
M  V30 205 O 14.3680 12.2910 20.0870 0
M  V30 206 N 15.7460 13.2460 18.5260 0
M  V30 207 H 12.2810 18.2060 10.1710 0
M  V30 208 H 10.1710 12.2810 18.2060 0
M  V30 209 H 18.0310 12.1160 25.2820 0
M  V30 210 O 17.4160 14.3680 25.2120 0
M  V30 211 N 18.9770 15.7460 24.2570 0
M  V30 212 H 25.3870 12.2210 18.0310 0
M  V30 213 O 23.1350 12.2910 17.4160 0
M  V30 214 N 21.7570 13.2460 18.9770 0
M  V30 215 H 19.2970 10.1710 25.2220 0
M  V30 216 H 27.3320 12.2810 19.2970 0
M  V30 217 H 19.4720 25.3870 25.2820 0
M  V30 218 O 20.0870 23.1350 25.2120 0
M  V30 219 N 18.5260 21.7570 24.2570 0
M  V30 220 H 12.2210 18.0310 25.3870 0
M  V30 221 O 12.2910 17.4160 23.1350 0
M  V30 222 N 13.2460 18.9770 21.7570 0
M  V30 223 H 18.2060 27.3320 25.2220 0
M  V30 224 H 12.2810 19.2970 27.3320 0
M  V30 225 H 13.6560 17.7460 15.7610 0
M  V30 226 C 13.1960 19.1320 16.9510 0
M  V30 227 H 15.7610 13.6560 17.7460 0
M  V30 228 C 16.9510 13.1960 19.1320 0
M  V30 229 H 19.7570 15.7610 23.8470 0
M  V30 230 C 18.3710 16.9510 24.3070 0
M  V30 231 H 21.7420 13.6560 19.7570 0
M  V30 232 C 20.5520 13.1960 18.3710 0
M  V30 233 H 17.7460 21.7420 23.8470 0
M  V30 234 C 19.1320 20.5520 24.3070 0
M  V30 235 H 13.6560 19.7570 21.7420 0
M  V30 236 C 13.1960 18.3710 20.5520 0
M  V30 237 C 13.1810 18.4260 18.1560 0
M  V30 238 C 13.1760 20.5020 16.9860 0
M  V30 239 C 18.1560 13.1810 18.4260 0
M  V30 240 C 16.9860 13.1760 20.5020 0
M  V30 241 C 19.0770 18.1560 24.3220 0
M  V30 242 C 17.0010 16.9860 24.3270 0
M  V30 243 C 19.3470 13.1810 19.0770 0
M  V30 244 C 20.5170 13.1760 17.0010 0
M  V30 245 C 18.4260 19.3470 24.3220 0
M  V30 246 C 20.5020 20.5170 24.3270 0
M  V30 247 C 13.1810 19.0770 19.3470 0
M  V30 248 C 13.1760 17.0010 20.5170 0
M  V30 249 C 13.1260 17.0760 18.1110 0
M  V30 250 H 13.1960 21.0070 16.1810 0
M  V30 251 C 13.1160 21.1370 18.2210 0
M  V30 252 C 18.1110 13.1260 17.0760 0
M  V30 253 H 16.1810 13.1960 21.0070 0
M  V30 254 C 18.2210 13.1160 21.1370 0
M  V30 255 C 20.4270 18.1110 24.3770 0
M  V30 256 H 16.4960 16.1810 24.3070 0
M  V30 257 C 16.3660 18.2210 24.3870 0
M  V30 258 C 19.3920 13.1260 20.4270 0
M  V30 259 H 21.3220 13.1960 16.4960 0
M  V30 260 C 19.2820 13.1160 16.3660 0
M  V30 261 C 17.0760 19.3920 24.3770 0
M  V30 262 H 21.0070 21.3220 24.3070 0
M  V30 263 C 21.1370 19.2820 24.3870 0
M  V30 264 C 13.1260 20.4270 19.3920 0
M  V30 265 H 13.1960 16.4960 21.3220 0
M  V30 266 C 13.1160 16.3660 19.2820 0
M  V30 267 H 13.1010 16.6260 17.2760 0
M  V30 268 H 13.0660 22.0820 18.2560 0
M  V30 269 H 17.2760 13.1010 16.6260 0
M  V30 270 H 18.2560 13.0660 22.0820 0
M  V30 271 H 20.8770 17.2760 24.4020 0
M  V30 272 H 15.4210 18.2560 24.4370 0
M  V30 273 H 20.2270 13.1010 20.8770 0
M  V30 274 H 19.2470 13.0660 15.4210 0
M  V30 275 H 16.6260 20.2270 24.4020 0
M  V30 276 H 22.0820 19.2470 24.4370 0
M  V30 277 H 13.1010 20.8770 20.2270 0
M  V30 278 H 13.0660 15.4210 19.2470 0
M  V30 END ATOM
M  V30 BEGIN BOND
M  V30 1 1   1   6
M  V30 2 1   1   5
M  V30 3 1   1   7
M  V30 4 1   2   8
M  V30 5 1   3   9
M  V30 6 1   4  10
M  V30 7 1   5  11
M  V30 8 1   6  12
M  V30 9 1   7  13
M  V30 10 1   8  14
M  V30 11 1   8  11
M  V30 12 1   9  12
M  V30 13 1   9  15
M  V30 14 1  10  13
M  V30 15 1  10  16
M  V30 16 1  11  17
M  V30 17 1  12  18
M  V30 18 1  13  19
M  V30 19 1  14  20
M  V30 20 1  14  21
M  V30 21 1  15  22
M  V30 22 1  15  23
M  V30 23 1  16  24
M  V30 24 1  16  25
M  V30 25 1  17  27
M  V30 26 1  17  26
M  V30 27 1  18  28
M  V30 28 1  18  29
M  V30 29 1  19  30
M  V30 30 1  20  31
M  V30 31 1  20  27
M  V30 32 1  21  32
M  V30 33 1  21  33
M  V30 34 1  22  29
M  V30 35 1  22  34
M  V30 36 1  23  35
M  V30 37 1  23  36
M  V30 38 1  24  30
M  V30 39 1  24  37
M  V30 40 1  25  39
M  V30 41 1  25  38
M  V30 42 1  27  40
M  V30 43 1  29  41
M  V30 44 1  33  43
M  V30 45 1  33  42
M  V30 46 1  36  44
M  V30 47 1  36  45
M  V30 48 1  39  46
M  V30 49 1  39  47
M  V30 50 1  43  49
M  V30 51 1  43  48
M  V30 52 1  45  51
M  V30 53 1  45  50
M  V30 54 1  47  52
M  V30 55 1  47  53
M  V30 56 1  48  55
M  V30 57 1  48  54
M  V30 58 1  49  57
M  V30 59 1  49  56
M  V30 60 1  50  59
M  V30 61 1  50  58
M  V30 62 1  51  60
M  V30 63 1  51  61
M  V30 64 1  52  63
M  V30 65 1  52  62
M  V30 66 1  53  64
M  V30 67 1  53  65
M  V30 68 1  54  67
M  V30 69 1  54  66
M  V30 70 1  55  69
M  V30 71 1  55  68
M  V30 72 1  57  70
M  V30 73 1  57  67
M  V30 74 1  58  72
M  V30 75 1  58  71
M  V30 76 1  59  74
M  V30 77 1  59  73
M  V30 78 1  61  75
M  V30 79 1  61  72
M  V30 80 1  62  76
M  V30 81 1  62  77
M  V30 82 1  63  78
M  V30 83 1  63  79
M  V30 84 1  65  77
M  V30 85 1  65  80
M  V30 86 1  66  82
M  V30 87 1  66  81
M  V30 88 1  67  83
M  V30 89 1  68  84
M  V30 90 1  68  82
M  V30 91 1  71  86
M  V30 92 1  71  85
M  V30 93 1  72  87
M  V30 94 1  73  88
M  V30 95 1  73  86
M  V30 96 1  76  90
M  V30 97 1  76  89
M  V30 98 1  77  91
M  V30 99 1  78  92
M  V30 100 1  78  90
M  V30 101 1  81  94
M  V30 102 1  81  93
M  V30 103 1  82  95
M  V30 104 1  85  96
M  V30 105 1  85  97
M  V30 106 1  86  98
M  V30 107 1  89 100
M  V30 108 1  89  99
M  V30 109 1  90 101
M  V30 110 1  94 102
M  V30 111 1  94 103
M  V30 112 1  97 104
M  V30 113 1  97 105
M  V30 114 1 100 106
M  V30 115 1 100 107
M  V30 116 1 103 109
M  V30 117 1 103 108
M  V30 118 1 105 110
M  V30 119 1 105 111
M  V30 120 1 107 113
M  V30 121 1 107 112
M  V30 122 1 108 116
M  V30 123 1 108 115
M  V30 124 1 109 118
M  V30 125 1 109 117
M  V30 126 1 110 120
M  V30 127 1 110 121
M  V30 128 1 111 123
M  V30 129 1 111 122
M  V30 130 1 112 125
M  V30 131 1 112 126
M  V30 132 1 113 128
M  V30 133 1 113 127
M  V30 134 1 114 132
M  V30 135 1 114 131
M  V30 136 1 114 133
M  V30 137 1 116 138
M  V30 138 1 116 131
M  V30 139 1 117 139
M  V30 140 1 117 138
M  V30 141 1 119 143
M  V30 142 1 119 142
M  V30 143 1 119 144
M  V30 144 1 121 144
M  V30 145 1 121 149
M  V30 146 1 122 149
M  V30 147 1 122 150
M  V30 148 1 124 155
M  V30 149 1 124 153
M  V30 150 1 124 154
M  V30 151 1 126 160
M  V30 152 1 126 155
M  V30 153 1 127 161
M  V30 154 1 127 160
M  V30 155 1 129 134
M  V30 156 1 130 135
M  V30 157 1 132 136
M  V30 158 1 133 137
M  V30 159 1 134 136
M  V30 160 1 134 162
M  V30 161 1 135 137
M  V30 162 1 135 163
M  V30 163 1 136 164
M  V30 164 1 137 165
M  V30 165 1 138 166
M  V30 166 1 140 145
M  V30 167 1 141 146
M  V30 168 1 142 147
M  V30 169 1 143 148
M  V30 170 1 145 147
M  V30 171 1 145 167
M  V30 172 1 146 168
M  V30 173 1 146 148
M  V30 174 1 147 169
M  V30 175 1 148 170
M  V30 176 1 149 171
M  V30 177 1 151 156
M  V30 178 1 152 157
M  V30 179 1 153 158
M  V30 180 1 154 159
M  V30 181 1 156 158
M  V30 182 1 156 172
M  V30 183 1 157 173
M  V30 184 1 157 159
M  V30 185 1 158 174
M  V30 186 1 159 175
M  V30 187 1 160 176
M  V30 188 1 162 177
M  V30 189 1 162 178
M  V30 190 1 163 179
M  V30 191 1 163 180
M  V30 192 1 164 181
M  V30 193 1 164 182
M  V30 194 1 165 183
M  V30 195 1 165 184
M  V30 196 1 167 186
M  V30 197 1 167 185
M  V30 198 1 168 188
M  V30 199 1 168 187
M  V30 200 1 169 189
M  V30 201 1 169 190
M  V30 202 1 170 192
M  V30 203 1 170 191
M  V30 204 1 172 194
M  V30 205 1 172 193
M  V30 206 1 173 196
M  V30 207 1 173 195
M  V30 208 1 174 197
M  V30 209 1 174 198
M  V30 210 1 175 200
M  V30 211 1 175 199
M  V30 212 1 177 182
M  V30 213 1 177 201
M  V30 214 1 178 202
M  V30 215 1 178 203
M  V30 216 1 179 184
M  V30 217 1 179 204
M  V30 218 1 180 206
M  V30 219 1 180 205
M  V30 220 1 182 207
M  V30 221 1 184 208
M  V30 222 1 185 190
M  V30 223 1 185 209
M  V30 224 1 186 211
M  V30 225 1 186 210
M  V30 226 1 187 212
M  V30 227 1 187 192
M  V30 228 1 188 213
M  V30 229 1 188 214
M  V30 230 1 190 215
M  V30 231 1 192 216
M  V30 232 1 193 198
M  V30 233 1 193 217
M  V30 234 1 194 219
M  V30 235 1 194 218
M  V30 236 1 195 220
M  V30 237 1 195 200
M  V30 238 1 196 222
M  V30 239 1 196 221
M  V30 240 1 198 223
M  V30 241 1 200 224
M  V30 242 1 203 225
M  V30 243 1 203 226
M  V30 244 1 206 227
M  V30 245 1 206 228
M  V30 246 1 211 229
M  V30 247 1 211 230
M  V30 248 1 214 232
M  V30 249 1 214 231
M  V30 250 1 219 233
M  V30 251 1 219 234
M  V30 252 1 222 236
M  V30 253 1 222 235
M  V30 254 1 226 238
M  V30 255 1 226 237
M  V30 256 1 228 239
M  V30 257 1 228 240
M  V30 258 1 230 241
M  V30 259 1 230 242
M  V30 260 1 232 244
M  V30 261 1 232 243
M  V30 262 1 234 245
M  V30 263 1 234 246
M  V30 264 1 236 247
M  V30 265 1 236 248
M  V30 266 1 237 249
M  V30 267 1 237 247
M  V30 268 1 238 250
M  V30 269 1 238 251
M  V30 270 1 239 252
M  V30 271 1 239 243
M  V30 272 1 240 253
M  V30 273 1 240 254
M  V30 274 1 241 245
M  V30 275 1 241 255
M  V30 276 1 242 256
M  V30 277 1 242 257
M  V30 278 1 243 258
M  V30 279 1 244 260
M  V30 280 1 244 259
M  V30 281 1 245 261
M  V30 282 1 246 262
M  V30 283 1 246 263
M  V30 284 1 247 264
M  V30 285 1 248 266
M  V30 286 1 248 265
M  V30 287 1 249 267
M  V30 288 1 249 266
M  V30 289 1 251 268
M  V30 290 1 251 264
M  V30 291 1 252 260
M  V30 292 1 252 269
M  V30 293 1 254 258
M  V30 294 1 254 270
M  V30 295 1 255 263
M  V30 296 1 255 271
M  V30 297 1 257 261
M  V30 298 1 257 272
M  V30 299 1 258 273
M  V30 300 1 260 274
M  V30 301 1 261 275
M  V30 302 1 263 276
M  V30 303 1 264 277
M  V30 304 1 266 278
M  V30 305 1 M   END
M  V30 END BOND
M  V30 END CTAB

