     RDKit          3D

  0  0  0  0  0  0  0  0  0  0999 V3000
M  V30 BEGIN CTAB
M  V30 COUNTS 129 143 0 0 0
M  V30 BEGIN ATOM
M  V30 1 C 13.3910 11.3980 4.3790 0
M  V30 2 H 13.4200 11.1370 5.2710 0
M  V30 3 C 12.7250 12.5720 4.0170 0
M  V30 4 N 13.9970 10.6320 3.4250 0
M  V30 5 C 12.6150 12.9210 2.7020 0
M  V30 6 O 12.1080 13.3700 4.9470 0
M  V30 7 C 13.9360 11.0060 2.1530 0
M  V30 8 Pd 15.1200 9.0420 4.0150 0
M  V30 9 H 16.2210 9.7000 6.6690 0
M  V30 10 H 15.0490 7.1040 6.2680 0
M  V30 11 H 12.2610 8.4900 4.3990 0
M  V30 12 H 12.5810 11.4810 9.8330 0
M  V30 13 H 10.0880 9.7270 8.4020 0
M  V30 14 C 13.2380 12.1280 1.7590 0
M  V30 15 C 12.5720 13.4450 6.2600 0
M  V30 16 H 14.3740 10.4960 1.5100 0
M  V30 17 N 16.4560 10.3470 4.7770 0
M  V30 18 N 16.1810 7.4460 4.6530 0
M  V30 19 N 13.7430 7.7730 3.2730 0
M  V30 20 C 16.7000 10.2930 6.1340 0
M  V30 21 C 15.7460 6.7580 5.7580 0
M  V30 22 C 12.4570 7.8830 3.7240 0
M  V30 23 C 12.7760 11.6400 10.7290 0
M  V30 24 C 9.7040 10.4150 8.8980 0
M  V30 25 H 13.1880 12.3500 0.8570 0
M  V30 26 C 13.8990 13.4180 6.5840 0
M  V30 27 C 11.5940 13.5920 7.2210 0
M  V30 28 C 17.1370 11.1960 4.0220 0
M  V30 29 C 17.1860 6.9480 3.9460 0
M  V30 30 C 14.0340 6.8560 2.3360 0
M  V30 31 C 17.6490 11.1150 6.6930 0
M  V30 32 H 14.1000 8.5410 10.6200 0
M  V30 33 C 16.3210 5.5700 6.1200 0
M  V30 34 C 11.4600 7.1140 3.1960 0
M  V30 35 H 11.6410 6.6820 9.5480 0
M  V30 36 C 13.4370 12.8040 11.0680 0
M  V30 37 N 12.4110 10.7420 11.6340 0
M  V30 38 C 8.8770 11.3400 8.2810 0
M  V30 39 N 9.9530 10.5150 10.2250 0
M  V30 40 H 14.5270 13.3380 5.9040 0
M  V30 41 C 14.3350 13.5060 7.8900 0
M  V30 42 C 12.0040 13.7230 8.5700 0
M  V30 43 H 10.6920 13.6040 6.9910 0
M  V30 44 H 17.0070 11.1890 3.1010 0
M  V30 45 C 18.0380 12.0910 4.5670 0
M  V30 46 C 17.8050 5.7820 4.2500 0
M  V30 47 H 17.4820 7.4260 3.2040 0
M  V30 48 C 13.0860 5.9890 1.8150 0
M  V30 49 H 14.9060 6.7990 2.0230 0
M  V30 50 C 18.3060 12.0620 5.9250 0
M  V30 51 O 17.9800 11.0540 8.0390 0
M  V30 52 C 13.8750 7.9220 11.2760 0
M  V30 53 C 17.3730 5.0380 5.3470 0
M  V30 54 O 15.9480 4.8570 7.2490 0
M  V30 55 C 11.7390 6.1460 2.2240 0
M  V30 56 O 10.1560 7.2020 3.5730 0
M  V30 57 C 10.7400 6.6040 9.7720 0
M  V30 58 C 13.7310 13.0210 12.4110 0
M  V30 59 O 13.7990 13.7820 10.1990 0
M  V30 60 C 12.6860 10.9740 12.9330 0
M  V30 61 Pd 11.2540 9.1900 11.0370 0
M  V30 62 C 8.3350 12.3790 9.0170 0
M  V30 63 O 8.5640 11.3010 6.9300 0
M  V30 64 C 9.4020 11.5110 10.9630 0
M  V30 65 H 15.2380 13.4790 8.1120 0
M  V30 66 C 13.3410 13.6400 8.8540 0
M  V30 67 H 11.3840 13.8650 9.2460 0
M  V30 68 H 18.4620 12.7160 4.0220 0
M  V30 69 H 18.5120 5.4800 3.7290 0
M  V30 70 H 13.3260 5.3260 1.2120 0
M  V30 71 H 18.9110 12.6550 6.3080 0
M  V30 72 C 17.5210 9.9930 8.8290 0
M  V30 73 C 14.8250 7.0260 11.7320 0
M  V30 74 N 12.6230 7.8950 11.7820 0
M  V30 75 H 17.7640 4.2210 5.5600 0
M  V30 76 C 14.6000 4.8090 7.6110 0
M  V30 77 H 11.0630 5.6210 1.8610 0
M  V30 78 C 9.7860 8.2660 4.4190 0
M  V30 79 C 10.0510 5.4550 9.4380 0
M  V30 80 N 10.1180 7.6220 10.4250 0
M  V30 81 H 14.1800 13.7920 12.6740 0
M  V30 82 C 13.3600 12.0960 13.3300 0
M  V30 83 H 12.4120 10.3590 13.5730 0
M  V30 84 H 7.7920 13.0130 8.6020 0
M  V30 85 C 8.5970 12.4720 10.3620 0
M  V30 86 C 8.9950 10.2640 6.1580 0
M  V30 87 H 9.5650 11.5520 11.8770 0
M  V30 88 C 16.9730 10.3490 10.0550 0
M  V30 89 C 17.7140 8.7340 8.4600 0
M  V30 90 C 14.5100 6.0970 12.7150 0
M  V30 91 O 16.1040 6.9850 11.2470 0
M  V30 92 C 12.3390 7.0560 12.7730 0
M  V30 93 C 13.5790 4.8160 6.6340 0
M  V30 94 C 14.3280 4.6700 8.9750 0
M  V30 95 C 9.9750 9.5780 4.0630 0
M  V30 96 C 9.1400 7.9290 5.6150 0
M  V30 97 C 8.7190 5.3190 9.7630 0
M  V30 98 O 10.6690 4.4060 8.7990 0
M  V30 99 C 8.8170 7.4680 10.7560 0
M  V30 100 H 13.5640 12.2230 14.2290 0
M  V30 101 H 8.2410 13.1670 10.8650 0
M  V30 102 C 9.6390 10.5980 4.9510 0
M  V30 103 C 8.7000 8.9610 6.4610 0
M  V30 104 H 16.9290 11.2400 10.3230 0
M  V30 105 C 16.4930 9.3270 10.8660 0
M  V30 106 C 17.1680 7.6880 9.2450 0
M  V30 107 H 18.2030 8.5390 7.6920 0
M  V30 108 H 15.1370 5.4800 13.0160 0
M  V30 109 C 13.2380 6.1260 13.2260 0
M  V30 110 C 16.5770 8.0440 10.4370 0
M  V30 111 H 11.5000 7.1020 13.1740 0
M  V30 112 H 13.7810 4.8840 5.7280 0
M  V30 113 C 12.2640 4.7180 7.0770 0
M  V30 114 C 13.0170 4.5010 9.3220 0
M  V30 115 H 15.0040 4.6940 9.6130 0
M  V30 116 H 10.3260 9.7880 3.2270 0
M  V30 117 H 9.0030 7.0390 5.8440 0
M  V30 118 H 8.2520 4.5450 9.5410 0
M  V30 119 C 8.1220 6.3310 10.4110 0
M  V30 120 C 12.0130 4.5130 8.4370 0
M  V30 121 H 8.3850 8.1410 11.2260 0
M  V30 122 H 9.8360 11.4840 4.7500 0
M  V30 123 H 8.2130 8.7590 7.2270 0
M  V30 124 H 16.1200 9.5220 11.6960 0
M  V30 125 H 17.2100 6.8020 8.9690 0
M  V30 126 H 12.9860 5.5140 13.8800 0
M  V30 127 H 11.5570 4.7870 6.4750 0
M  V30 128 H 12.8130 4.3700 10.2190 0
M  V30 129 H 7.2210 6.2630 10.6310 0
M  V30 END ATOM
M  V30 BEGIN BOND
M  V30 1 1   1   4
M  V30 2 1   1   3
M  V30 3 1   1   2
M  V30 4 1   3   5
M  V30 5 1   3   6
M  V30 6 1   4   7
M  V30 7 1   5  14
M  V30 8 1   6  15
M  V30 9 1   7  16
M  V30 10 1   7  14
M  V30 11 1   8   4
M  V30 12 1   8  19
M  V30 13 1   8  18
M  V30 14 1   8  17
M  V30 15 1   9  20
M  V30 16 1  10  21
M  V30 17 1  11  22
M  V30 18 1  12  23
M  V30 19 1  13  24
M  V30 20 1  14  25
M  V30 21 1  15  26
M  V30 22 1  15  27
M  V30 23 1  17  28
M  V30 24 1  17  20
M  V30 25 1  18  29
M  V30 26 1  18  21
M  V30 27 1  19  30
M  V30 28 1  19  22
M  V30 29 1  20  31
M  V30 30 1  21  33
M  V30 31 1  22  34
M  V30 32 1  23  36
M  V30 33 1  23  37
M  V30 34 1  24  38
M  V30 35 1  24  39
M  V30 36 1  26  40
M  V30 37 1  26  41
M  V30 38 1  27  43
M  V30 39 1  27  42
M  V30 40 1  28  44
M  V30 41 1  28  45
M  V30 42 1  29  47
M  V30 43 1  29  46
M  V30 44 1  30  48
M  V30 45 1  30  49
M  V30 46 1  31  50
M  V30 47 1  31  51
M  V30 48 1  32  52
M  V30 49 1  33  53
M  V30 50 1  33  54
M  V30 51 1  34  55
M  V30 52 1  34  56
M  V30 53 1  35  57
M  V30 54 1  36  59
M  V30 55 1  36  58
M  V30 56 1  37  60
M  V30 57 1  38  63
M  V30 58 1  38  62
M  V30 59 1  39  64
M  V30 60 1  39  61
M  V30 61 1  41  65
M  V30 62 1  41  66
M  V30 63 1  42  66
M  V30 64 1  42  67
M  V30 65 1  45  68
M  V30 66 1  45  50
M  V30 67 1  46  69
M  V30 68 1  46  53
M  V30 69 1  48  70
M  V30 70 1  48  55
M  V30 71 1  50  71
M  V30 72 1  51  72
M  V30 73 1  52  73
M  V30 74 1  52  74
M  V30 75 1  53  75
M  V30 76 1  54  76
M  V30 77 1  55  77
M  V30 78 1  56  78
M  V30 79 1  57  79
M  V30 80 1  57  80
M  V30 81 1  58  81
M  V30 82 1  58  82
M  V30 83 1  59  66
M  V30 84 1  60  82
M  V30 85 1  60  83
M  V30 86 1  61  37
M  V30 87 1  61  80
M  V30 88 1  61  74
M  V30 89 1  62  84
M  V30 90 1  62  85
M  V30 91 1  63  86
M  V30 92 1  64  85
M  V30 93 1  64  87
M  V30 94 1  72  89
M  V30 95 1  72  88
M  V30 96 1  73  91
M  V30 97 1  73  90
M  V30 98 1  74  92
M  V30 99 1  76  93
M  V30 100 1  76  94
M  V30 101 1  78  95
M  V30 102 1  78  96
M  V30 103 1  79  98
M  V30 104 1  79  97
M  V30 105 1  80  99
M  V30 106 1  82 100
M  V30 107 1  85 101
M  V30 108 1  86 102
M  V30 109 1  86 103
M  V30 110 1  88 104
M  V30 111 1  88 105
M  V30 112 1  89 107
M  V30 113 1  89 106
M  V30 114 1  90 108
M  V30 115 1  90 109
M  V30 116 1  91 110
M  V30 117 1  92 111
M  V30 118 1  92 109
M  V30 119 1  93 112
M  V30 120 1  93 113
M  V30 121 1  94 114
M  V30 122 1  94 115
M  V30 123 1  95 116
M  V30 124 1  95 102
M  V30 125 1  96 117
M  V30 126 1  96 103
M  V30 127 1  97 118
M  V30 128 1  97 119
M  V30 129 1  98 120
M  V30 130 1  99 119
M  V30 131 1  99 121
M  V30 132 1 102 122
M  V30 133 1 103 123
M  V30 134 1 105 110
M  V30 135 1 105 124
M  V30 136 1 106 125
M  V30 137 1 106 110
M  V30 138 1 109 126
M  V30 139 1 113 127
M  V30 140 1 113 120
M  V30 141 1 114 120
M  V30 142 1 114 128
M  V30 143 1 119 129
M  V30 144 1 M   END
M  V30 END BOND
M  V30 END CTAB

