     RDKit          3D

  0  0  0  0  0  0  0  0  0  0999 V3000
M  V30 BEGIN CTAB
M  V30 COUNTS 130 144 0 0 0
M  V30 BEGIN ATOM
M  V30 1 Pd 5.2770 5.2690 2.0650 0
M  V30 2 N 4.7050 7.2260 2.0630 0
M  V30 3 N 4.3520 5.0790 0.2690 0
M  V30 4 N 5.8150 3.3110 2.1310 0
M  V30 5 N 6.0790 5.4730 3.9160 0
M  V30 6 C 3.4150 7.4700 2.3360 0
M  V30 7 C 5.5220 8.2280 1.7180 0
M  V30 8 C 3.2000 4.3510 0.2250 0
M  V30 9 C 4.7920 5.6880 -0.8560 0
M  V30 10 C 5.3620 2.5550 3.1740 0
M  V30 11 C 6.7340 2.8300 1.3060 0
M  V30 12 C 5.2810 5.8210 4.9350 0
M  V30 13 C 7.4120 5.2900 4.1350 0
M  V30 14 H 2.8560 6.7620 2.6320 0
M  V30 15 C 2.8870 8.7400 2.1920 0
M  V30 16 C 5.0420 9.5350 1.5800 0
M  V30 17 H 6.4410 8.0480 1.5620 0
M  V30 18 H 2.8810 3.9140 1.0070 0
M  V30 19 C 2.4950 4.2500 -0.9740 0
M  V30 20 C 4.1090 5.6240 -2.0390 0
M  V30 21 H 5.6050 6.1780 -0.8230 0
M  V30 22 H 4.6920 2.8990 3.7520 0
M  V30 23 C 5.8800 1.2910 3.3860 0
M  V30 24 C 7.2740 1.5470 1.4800 0
M  V30 25 H 7.0340 3.3650 0.5820 0
M  V30 26 H 4.3530 5.9540 4.7810 0
M  V30 27 C 5.7870 5.9890 6.1930 0
M  V30 28 C 7.9360 5.4210 5.4070 0
M  V30 29 H 7.9840 5.0710 3.4090 0
M  V30 30 C 3.7180 9.7970 1.8190 0
M  V30 31 O 1.5760 9.0300 2.4410 0
M  V30 32 H 5.6310 10.2350 1.3240 0
M  V30 33 C 2.9480 4.9000 -2.1130 0
M  V30 34 O 1.3010 3.5730 -1.0860 0
M  V30 35 H 4.4390 6.0800 -2.8040 0
M  V30 36 C 6.8540 0.7660 2.5430 0
M  V30 37 O 5.4480 0.4580 4.4030 0
M  V30 38 H 7.9220 1.2150 0.8710 0
M  V30 39 C 7.1510 5.7810 6.4460 0
M  V30 40 O 4.9980 6.3060 7.2890 0
M  V30 41 H 8.8610 5.2570 5.5530 0
M  V30 42 H 3.3740 10.6780 1.7320 0
M  V30 43 C 0.6060 8.0720 2.1540 0
M  V30 44 H 2.4630 4.8460 -2.9280 0
M  V30 45 C 0.9300 2.6190 -0.1180 0
M  V30 46 H 7.2210 -0.0980 2.6930 0
M  V30 47 C 4.6770 0.9900 5.4280 0
M  V30 48 H 7.5090 5.8890 7.3190 0
M  V30 49 C 3.6870 6.6990 7.1170 0
M  V30 50 C 0.7130 7.1710 1.1070 0
M  V30 51 C -0.5610 8.1400 2.9280 0
M  V30 52 C 1.8310 1.6600 0.3650 0
M  V30 53 C -0.3860 2.5870 0.2630 0
M  V30 54 C 3.3920 0.5140 5.6020 0
M  V30 55 C 5.2190 1.8900 6.3330 0
M  V30 56 C 3.3370 7.7900 6.2920 0
M  V30 57 C 2.7280 6.0570 7.8950 0
M  V30 58 H 1.4980 7.1580 0.5720 0
M  V30 59 C -0.3170 6.2940 0.8410 0
M  V30 60 C -1.6280 7.2630 2.6240 0
M  V30 61 H -0.6330 8.7610 3.6440 0
M  V30 62 H 2.7400 1.6720 0.0840 0
M  V30 63 C 1.3880 0.6930 1.2580 0
M  V30 64 C -0.8530 1.6080 1.1270 0
M  V30 65 H -0.9860 3.2430 -0.0690 0
M  V30 66 H 3.0280 -0.1040 4.9790 0
M  V30 67 C 2.6380 0.9330 6.6680 0
M  V30 68 C 4.4420 2.3380 7.3940 0
M  V30 69 H 6.1110 2.1970 6.2260 0
M  V30 70 H 4.0020 8.2370 5.7810 0
M  V30 71 C 2.0240 8.2010 6.2360 0
M  V30 72 C 1.4270 6.5060 7.8460 0
M  V30 73 H 2.9660 5.3240 8.4490 0
M  V30 74 H -0.2380 5.6540 0.1430 0
M  V30 75 C -1.4700 6.3630 1.6030 0
M  V30 76 H -2.4410 7.3000 3.1150 0
M  V30 77 H 1.9880 0.0460 1.6100 0
M  V30 78 C 0.0430 0.6910 1.6260 0
M  V30 79 H -1.7730 1.5720 1.3670 0
M  V30 80 H 1.7640 0.5850 6.7950 0
M  V30 81 C 3.1440 1.8600 7.5620 0
M  V30 82 H 4.7980 2.9710 8.0070 0
M  V30 83 H 1.7680 8.9260 5.6790 0
M  V30 84 C 1.0830 7.5340 7.0080 0
M  V30 85 H 0.7660 6.1010 8.3960 0
M  V30 86 O -2.5210 5.4820 1.2420 0
M  V30 87 O -0.3670 -0.3840 2.4230 0
M  V30 88 O 2.4670 2.3120 8.6760 0
M  V30 89 O -0.2390 8.0580 6.9330 0
M  V30 90 C -3.0900 4.7150 2.2030 0
M  V30 91 C -1.1030 -0.1520 3.5340 0
M  V30 92 C 1.1070 2.3450 8.7220 0
M  V30 93 C -1.2790 7.1610 7.1020 0
M  V30 94 C -2.4740 4.4040 3.4240 0
M  V30 95 C -4.3190 4.1440 1.9190 0
M  V30 96 C -1.1460 1.0840 4.1960 0
M  V30 97 C -1.8190 -1.2140 4.0540 0
M  V30 98 C 0.3300 2.6820 7.6050 0
M  V30 99 C 0.4740 2.0420 9.8900 0
M  V30 100 C -1.2470 5.9020 6.5140 0
M  V30 101 C -2.3600 7.5330 7.9050 0
M  V30 102 N -3.0730 3.6200 4.3090 0
M  V30 103 H -1.6160 4.7590 3.6190 0
M  V30 104 H -4.7500 4.3050 1.0880 0
M  V30 105 C -4.9040 3.3320 2.8750 0
M  V30 106 N -1.8680 1.2560 5.2920 0
M  V30 107 H -0.6470 1.8140 3.8510 0
M  V30 108 H -1.8010 -2.0660 3.6340 0
M  V30 109 C -2.5560 -1.0100 5.1980 0
M  V30 110 N -1.0120 2.6640 7.6600 0
M  V30 111 H 0.7600 2.9250 6.7930 0
M  V30 112 H 0.9750 1.8510 10.6730 0
M  V30 113 C -0.9150 2.0160 9.9210 0
M  V30 114 N -2.2530 5.0380 6.6960 0
M  V30 115 H -0.5050 5.6510 5.9770 0
M  V30 116 H -2.3730 8.3720 8.3490 0
M  V30 117 C -3.3920 6.6610 8.0320 0
M  V30 118 Pd -2.0650 3.1420 6.0050 0
M  V30 119 C -4.2820 3.0990 4.0450 0
M  V30 120 H -5.7500 2.9350 2.7040 0
M  V30 121 C -2.5730 0.2370 5.8120 0
M  V30 122 H -3.0560 -1.7260 5.5710 0
M  V30 123 C -1.6210 2.3290 8.8040 0
M  V30 124 H -1.3710 1.7810 10.7210 0
M  V30 125 C -3.3140 5.3810 7.4320 0
M  V30 126 H -4.1660 6.9100 8.5230 0
M  V30 127 H -4.7080 2.5540 4.6970 0
M  V30 128 H -3.0850 0.3710 6.6010 0
M  V30 129 H -2.5700 2.3100 8.8350 0
M  V30 130 H -4.0230 4.7610 7.5550 0
M  V30 END ATOM
M  V30 BEGIN BOND
M  V30 1 1   1   3
M  V30 2 1   1   2
M  V30 3 1   1   4
M  V30 4 1   1   5
M  V30 5 1   2   7
M  V30 6 1   2   6
M  V30 7 1   3   9
M  V30 8 1   3   8
M  V30 9 1   4  11
M  V30 10 1   4  10
M  V30 11 1   5  13
M  V30 12 1   5  12
M  V30 13 1   6  15
M  V30 14 1   6  14
M  V30 15 1   7  17
M  V30 16 1   7  16
M  V30 17 1   8  19
M  V30 18 1   8  18
M  V30 19 1   9  20
M  V30 20 1   9  21
M  V30 21 1  10  23
M  V30 22 1  10  22
M  V30 23 1  11  25
M  V30 24 1  11  24
M  V30 25 1  12  26
M  V30 26 1  12  27
M  V30 27 1  13  29
M  V30 28 1  13  28
M  V30 29 1  15  30
M  V30 30 1  15  31
M  V30 31 1  16  32
M  V30 32 1  16  30
M  V30 33 1  19  33
M  V30 34 1  19  34
M  V30 35 1  20  35
M  V30 36 1  20  33
M  V30 37 1  23  36
M  V30 38 1  23  37
M  V30 39 1  24  38
M  V30 40 1  24  36
M  V30 41 1  27  39
M  V30 42 1  27  40
M  V30 43 1  28  41
M  V30 44 1  28  39
M  V30 45 1  30  42
M  V30 46 1  31  43
M  V30 47 1  33  44
M  V30 48 1  34  45
M  V30 49 1  36  46
M  V30 50 1  37  47
M  V30 51 1  39  48
M  V30 52 1  40  49
M  V30 53 1  43  50
M  V30 54 1  43  51
M  V30 55 1  45  53
M  V30 56 1  45  52
M  V30 57 1  47  54
M  V30 58 1  47  55
M  V30 59 1  49  56
M  V30 60 1  49  57
M  V30 61 1  50  58
M  V30 62 1  50  59
M  V30 63 1  51  60
M  V30 64 1  51  61
M  V30 65 1  52  62
M  V30 66 1  52  63
M  V30 67 1  53  65
M  V30 68 1  53  64
M  V30 69 1  54  66
M  V30 70 1  54  67
M  V30 71 1  55  69
M  V30 72 1  55  68
M  V30 73 1  56  70
M  V30 74 1  56  71
M  V30 75 1  57  72
M  V30 76 1  57  73
M  V30 77 1  59  74
M  V30 78 1  59  75
M  V30 79 1  60  75
M  V30 80 1  60  76
M  V30 81 1  63  77
M  V30 82 1  63  78
M  V30 83 1  64  79
M  V30 84 1  64  78
M  V30 85 1  67  80
M  V30 86 1  67  81
M  V30 87 1  68  81
M  V30 88 1  68  82
M  V30 89 1  71  83
M  V30 90 1  71  84
M  V30 91 1  72  84
M  V30 92 1  72  85
M  V30 93 1  75  86
M  V30 94 1  78  87
M  V30 95 1  81  88
M  V30 96 1  84  89
M  V30 97 1  86  90
M  V30 98 1  87  91
M  V30 99 1  88  92
M  V30 100 1  89  93
M  V30 101 1  90  95
M  V30 102 1  90  94
M  V30 103 1  91  97
M  V30 104 1  91  96
M  V30 105 1  92  98
M  V30 106 1  92  99
M  V30 107 1  93 100
M  V30 108 1  93 101
M  V30 109 1  94 103
M  V30 110 1  94 102
M  V30 111 1  95 104
M  V30 112 1  95 105
M  V30 113 1  96 107
M  V30 114 1  96 106
M  V30 115 1  97 108
M  V30 116 1  97 109
M  V30 117 1  98 111
M  V30 118 1  98 110
M  V30 119 1  99 113
M  V30 120 1  99 112
M  V30 121 1 100 115
M  V30 122 1 100 114
M  V30 123 1 101 117
M  V30 124 1 101 116
M  V30 125 1 102 119
M  V30 126 1 105 120
M  V30 127 1 105 119
M  V30 128 1 106 121
M  V30 129 1 106 118
M  V30 130 1 109 122
M  V30 131 1 109 121
M  V30 132 1 110 118
M  V30 133 1 110 123
M  V30 134 1 113 123
M  V30 135 1 113 124
M  V30 136 1 114 118
M  V30 137 1 114 125
M  V30 138 1 117 125
M  V30 139 1 117 126
M  V30 140 1 118 102
M  V30 141 1 119 127
M  V30 142 1 121 128
M  V30 143 1 123 129
M  V30 144 1 125 130
M  V30 145 1 M   END
M  V30 END BOND
M  V30 END CTAB

