     RDKit          3D

  0  0  0  0  0  0  0  0  0  0999 V3000
M  V30 BEGIN CTAB
M  V30 COUNTS 668 764 0 0 0
M  V30 BEGIN ATOM
M  V30 1 C 16.4660 24.8600 14.2240 0
M  V30 2 C 15.8360 23.9010 15.0680 0
M  V30 3 C 16.8070 24.6670 12.8370 0
M  V30 4 N 16.8790 25.9800 14.9040 0
M  V30 5 H 15.5100 23.0360 14.8330 0
M  V30 6 C 15.8060 24.5220 16.2990 0
M  V30 7 C 17.6210 25.5430 12.0100 0
M  V30 8 C 16.1520 23.4910 12.1750 0
M  V30 9 C 16.5050 25.7250 16.2110 0
M  V30 10 Zn 17.9750 27.5960 14.2060 0
M  V30 11 H 15.3810 24.1840 17.0770 0
M  V30 12 C 18.0730 25.0760 10.7030 0
M  V30 13 N 18.2810 26.5770 12.4150 0
M  V30 14 C 14.7410 23.3130 12.1210 0
M  V30 15 C 16.8130 22.4390 11.7520 0
M  V30 16 C 16.7340 26.6910 17.3170 0
M  V30 17 N 18.1420 28.2970 16.1130 0
M  V30 18 N 19.4300 29.0230 13.6280 0
M  V30 19 O 16.3480 28.8070 13.5170 0
M  V30 20 C 18.9350 25.9370 10.3390 0
M  V30 21 H 17.7900 24.3000 10.2370 0
M  V30 22 C 19.0320 26.9580 11.3390 0
M  V30 23 H 14.2350 24.0330 12.4810 0
M  V30 24 N 14.0420 22.3500 11.6720 0
M  V30 25 H 17.7630 22.4450 11.7880 0
M  V30 26 C 16.1460 21.2790 11.2370 0
M  V30 27 C 17.4460 27.7890 17.2330 0
M  V30 28 C 16.0170 26.2790 18.5530 0
M  V30 29 C 18.7150 29.4780 16.5570 0
M  V30 30 C 19.8340 30.0780 14.3040 0
M  V30 31 C 20.1600 28.9830 12.4590 0
M  V30 32 H 19.4360 25.9090 9.5300 0
M  V30 33 C 19.9360 28.0910 11.4320 0
M  V30 34 C 14.7870 21.3260 11.2370 0
M  V30 35 Zn 11.9740 22.0470 11.9780 0
M  V30 36 H 16.6260 20.5260 10.9120 0
M  V30 37 C 17.6690 28.8070 18.3570 0
M  V30 38 C 16.6110 25.9370 19.7180 0
M  V30 39 C 14.5630 26.0720 18.5620 0
M  V30 40 C 18.4380 29.7860 17.9350 0
M  V30 41 C 19.3820 30.3520 15.6950 0
M  V30 42 C 20.7020 30.8720 13.5790 0
M  V30 43 C 20.8650 30.1950 12.4060 0
M  V30 44 C 20.7870 28.3580 10.0900 0
M  V30 45 C 13.9180 20.1170 10.7570 0
M  V30 46 N 12.6430 20.2210 11.0540 0
M  V30 47 N 12.3680 21.1380 13.9570 0
M  V30 48 N 10.0160 21.3960 12.7390 0
M  V30 49 O 11.3610 22.8210 10.1340 0
M  V30 50 O 11.6450 24.0570 12.7610 0
M  V30 51 H 17.3040 28.7430 19.2290 0
M  V30 52 H 17.5610 26.0080 19.7310 0
M  V30 53 N 16.0440 25.5130 20.8550 0
M  V30 54 H 14.0690 26.2850 17.7800 0
M  V30 55 C 13.9030 25.5930 19.6420 0
M  V30 56 H 18.7450 30.5330 18.4330 0
M  V30 57 C 19.7160 31.7080 16.1220 0
M  V30 58 H 21.0940 31.6960 13.8370 0
M  V30 59 H 21.3780 30.4990 11.6630 0
M  V30 60 C 22.1380 28.3610 10.1080 0
M  V30 61 C 20.1230 28.3830 8.8630 0
M  V30 62 C 14.4670 19.0060 10.1610 0
M  V30 63 C 11.7770 19.1840 10.7300 0
M  V30 64 C 13.5770 20.9160 14.4280 0
M  V30 65 C 11.2770 20.7870 14.5750 0
M  V30 66 C 8.9130 21.5660 11.9390 0
M  V30 67 C 9.9890 20.8950 13.9880 0
M  V30 68 S 10.9810 22.4980 8.7830 0
M  V30 69 C 14.7650 25.4080 20.8150 0
M  V30 70 Zn 16.9370 25.4100 22.7750 0
M  V30 71 H 12.9740 25.3930 19.6420 0
M  V30 72 C 20.5610 31.9980 17.2730 0
M  V30 73 C 19.1830 32.8280 15.5620 0
M  V30 74 H 22.5840 28.3310 10.9430 0
M  V30 75 N 22.8610 28.4110 8.9960 0
M  V30 76 H 19.1770 28.3830 8.8100 0
M  V30 77 C 20.8740 28.4110 7.7870 0
M  V30 78 H 15.3740 19.0120 9.8810 0
M  V30 79 C 13.7100 17.9080 9.9740 0
M  V30 80 C 12.3230 17.9110 10.2630 0
M  V30 81 H 10.8400 19.3040 10.8140 0
M  V30 82 H 14.3280 21.2460 13.9530 0
M  V30 83 C 13.7890 20.2090 15.6190 0
M  V30 84 C 11.3610 20.0150 15.8110 0
M  V30 85 H 8.9940 21.7720 11.0190 0
M  V30 86 C 7.6710 21.4150 12.5440 0
M  V30 87 C 8.7440 20.7440 14.5930 0
M  V30 88 C 11.9580 23.4610 7.6270 0
M  V30 89 O 9.9380 23.4450 8.5830 0
M  V30 90 O 10.8700 21.0700 8.4900 0
M  V30 91 C 13.9630 24.7960 22.0820 0
M  V30 92 C 17.3680 23.5840 24.9490 0
M  V30 93 N 14.7710 24.8230 23.1360 0
M  V30 94 N 17.3280 23.3130 22.6910 0
M  V30 95 N 17.3340 24.8330 24.8030 0
M  V30 96 O 18.8060 26.0110 22.0160 0
M  V30 97 O 16.5200 27.3220 23.3670 0
M  V30 98 H 20.9710 31.2750 17.7350 0
M  V30 99 N 20.7870 33.2680 17.7040 0
M  V30 100 H 18.5650 32.7270 14.8460 0
M  V30 101 C 19.4840 34.0560 15.9660 0
M  V30 102 C 22.2520 28.4110 7.8190 0
M  V30 103 Zn 25.0420 28.8070 8.8940 0
M  V30 104 H 20.4460 28.4320 6.9380 0
M  V30 105 H 14.1140 17.1170 9.6410 0
M  V30 106 H 11.7800 17.1360 10.1650 0
M  V30 107 C 15.1240 19.7410 16.0640 0
M  V30 108 C 12.6370 19.6950 16.2990 0
M  V30 109 H 10.5740 19.7350 16.2640 0
M  V30 110 H 6.8780 21.5960 12.0500 0
M  V30 111 C 7.5860 21.0060 13.8680 0
M  V30 112 H 8.6870 20.4640 15.4950 0
M  V30 113 C 12.9800 22.7320 7.0270 0
M  V30 114 C 11.7260 24.7770 7.2450 0
M  V30 115 C 12.7030 24.3310 22.0960 0
M  V30 116 C 17.2920 22.6390 23.8560 0
M  V30 117 C 17.6240 23.0360 26.2920 0
M  V30 118 C 14.1900 24.3440 24.2690 0
M  V30 119 C 17.4010 22.5650 21.5130 0
M  V30 120 C 17.4040 25.7830 25.7850 0
M  V30 121 S 20.0850 26.1590 22.7120 0
M  V30 122 S 16.3240 28.4570 22.7560 0
M  V30 123 C 20.1900 34.2250 17.1400 0
M  V30 124 Zn 21.7910 33.7470 19.6270 0
M  V30 125 H 19.2190 34.8090 15.4550 0
M  V30 126 C 23.2050 28.3460 6.6360 0
M  V30 127 N 24.4320 28.3860 6.9070 0
M  V30 128 N 25.3550 29.6960 10.7610 0
M  V30 129 N 24.6940 30.9610 8.4630 0
M  V30 130 O 25.5150 26.9220 9.6450 0
M  V30 131 O 26.9650 29.1300 8.2900 0
M  V30 132 C 15.5160 20.2300 17.3660 0
M  V30 133 C 15.9990 18.9600 15.2190 0
M  V30 134 H 12.7360 19.1510 17.0730 0
M  V30 135 H 6.7360 20.9040 14.2810 0
M  V30 136 H 13.1370 21.8330 7.2900 0
M  V30 137 C 13.7670 23.3190 6.0450 0
M  V30 138 C 12.5160 25.3620 6.2630 0
M  V30 139 H 11.0300 25.2760 7.6540 0
M  V30 140 H 12.2180 24.2480 21.2820 0
M  V30 141 C 12.1390 23.9930 23.2250 0
M  V30 142 C 17.2050 21.2920 23.9360 0
M  V30 143 H 17.6750 22.1010 26.4560 0
M  V30 144 C 17.7930 23.9900 27.3320 0
M  V30 145 C 12.9170 23.9740 24.4690 0
M  V30 146 H 14.7620 24.2640 25.0200 0
M  V30 147 H 17.4820 23.0150 20.6820 0
M  V30 148 C 17.3590 21.1590 21.5360 0
M  V30 149 C 17.7230 25.2630 27.1010 0
M  V30 150 H 17.2560 26.7060 25.6200 0
M  V30 151 C 20.3980 24.5340 23.2290 0
M  V30 152 O 21.1370 26.5190 21.8110 0
M  V30 153 O 19.8970 27.0510 23.9140 0
M  V30 154 C 16.5840 29.6160 23.9220 0
M  V30 155 O 15.0820 28.6350 22.2820 0
M  V30 156 O 17.2710 28.6970 21.7040 0
M  V30 157 C 20.3680 35.6120 17.7080 0
M  V30 158 N 21.1280 35.6190 18.8460 0
M  V30 159 N 22.1100 31.6560 19.9800 0
M  V30 160 N 20.0330 33.1480 20.7180 0
M  V30 161 O 23.6720 33.8770 18.9000 0
M  V30 162 O 22.5110 34.5970 21.4560 0
M  V30 163 C 22.6980 28.1210 5.3740 0
M  V30 164 C 25.4000 28.2660 5.8760 0
M  V30 165 C 25.7140 29.0690 11.9350 0
M  V30 166 C 25.3310 31.0440 10.8370 0
M  V30 167 C 25.1200 31.7850 9.4590 0
M  V30 168 C 24.4290 31.5300 7.2720 0
M  V30 169 S 25.7690 25.6540 8.9840 0
M  V30 170 S 28.1830 29.7950 8.5350 0
M  V30 171 C 14.7840 21.2090 18.1800 0
M  V30 172 N 16.6620 19.8920 18.1040 0
M  V30 173 C 15.6040 18.6060 13.8150 0
M  V30 174 N 17.1990 18.5290 15.5440 0
M  V30 175 H 14.4670 22.8210 5.6360 0
M  V30 176 C 13.5350 24.6330 5.6630 0
M  V30 177 H 12.3560 26.2630 6.0010 0
M  V30 178 H 11.2200 23.7590 23.2420 0
M  V30 179 C 17.2020 20.4370 22.7530 0
M  V30 180 H 17.1410 20.8890 24.7940 0
M  V30 181 H 17.9590 23.6850 28.2160 0
M  V30 182 H 12.5640 23.7280 25.3140 0
M  V30 183 C 17.6360 20.3410 20.2420 0
M  V30 184 H 17.8830 25.8730 27.8120 0
M  V30 185 C 20.6210 24.2850 24.7230 0
M  V30 186 C 20.7630 23.5220 22.4250 0
M  V30 187 C 15.7090 30.6840 24.3710 0
M  V30 188 C 17.8440 29.7730 24.7180 0
M  V30 189 C 20.0930 36.8400 17.1930 0
M  V30 190 C 21.3020 36.8400 19.5660 0
M  V30 191 C 23.0240 30.8660 19.4110 0
M  V30 192 C 21.0370 31.0220 20.5220 0
M  V30 193 C 19.9610 31.8530 20.9930 0
M  V30 194 C 19.2040 33.9630 21.0910 0
M  V30 195 S 24.7340 34.4990 18.1090 0
M  V30 196 H 21.7640 28.0970 5.2140 0
M  V30 197 C 23.6390 27.9310 4.3250 0
M  V30 198 C 24.9000 27.9890 4.5780 0
M  V30 199 H 26.3290 28.3670 6.0500 0
M  V30 200 H 25.6990 28.1180 11.9610 0
M  V30 201 C 26.0940 29.7430 13.0640 0
M  V30 202 C 25.6500 31.8100 11.9080 0
M  V30 203 C 25.1380 33.2010 9.3430 0
M  V30 204 C 24.4740 32.9610 7.0810 0
M  V30 205 H 24.2060 30.9760 6.5340 0
M  V30 206 C 24.2300 25.3000 8.4050 0
M  V30 207 O 26.6540 25.7650 7.8990 0
M  V30 208 O 26.0840 24.6390 9.9170 0
M  V30 209 C 29.2930 29.2690 7.3070 0
M  V30 210 O 27.9690 31.2220 8.1960 0
M  V30 211 O 28.6720 29.5640 9.8230 0
M  V30 212 H 13.9910 21.6760 17.9350 0
M  V30 213 C 15.4380 21.3160 19.3220 0
M  V30 214 C 16.5900 20.5630 19.2150 0
M  V30 215 Zn 17.9550 18.3770 17.4630 0
M  V30 216 C 16.6590 17.9020 13.4010 0
M  V30 217 H 14.8080 18.8280 13.3440 0
M  V30 218 C 17.5730 17.8430 14.4370 0
M  V30 219 C 14.2320 25.3500 4.5520 0
M  V30 220 H 17.1080 19.4920 22.7930 0
M  V30 221 C 18.6160 19.4950 20.2910 0
M  V30 222 H 20.5610 24.9900 25.3580 0
M  V30 223 C 20.9070 23.0210 25.0910 0
M  V30 224 C 21.0640 22.3320 22.9130 0
M  V30 225 H 20.8020 23.6640 21.4870 0
M  V30 226 H 14.9280 30.8190 23.8470 0
M  V30 227 C 15.8360 31.4280 25.3180 0
M  V30 228 C 18.1150 30.6470 25.6830 0
M  V30 229 H 18.5470 29.1700 24.5000 0
M  V30 230 H 19.7070 36.8460 16.3260 0
M  V30 231 C 20.2980 38.0300 17.7440 0
M  V30 232 C 20.9190 37.9660 18.8690 0
M  V30 233 H 21.6550 36.8710 20.4470 0
M  V30 234 H 23.7180 31.3240 18.9530 0
M  V30 235 C 23.1240 29.5610 19.3800 0
M  V30 236 C 20.9560 29.5920 20.4510 0
M  V30 237 C 18.8660 31.3550 21.7130 0
M  V30 238 C 18.0970 33.6870 21.8910 0
M  V30 239 H 19.3210 34.8620 20.8070 0
M  V30 240 C 23.9950 34.5260 16.4460 0
M  V30 241 O 24.9030 35.8490 18.5660 0
M  V30 242 O 25.9910 33.7050 18.1310 0
M  V30 243 H 23.3350 27.7580 3.4400 0
M  V30 244 H 25.5150 27.8410 3.8720 0
M  V30 245 C 26.3890 28.8810 14.3210 0
M  V30 246 C 26.0180 31.0870 13.1120 0
M  V30 247 H 25.6380 32.7580 11.8720 0
M  V30 248 H 25.3100 33.7570 10.0940 0
M  V30 249 C 24.9150 33.6930 8.1790 0
M  V30 250 H 24.2240 33.3730 6.2630 0
M  V30 251 C 23.9050 25.1370 6.9650 0
M  V30 252 C 23.0810 24.9500 9.1880 0
M  V30 253 C 30.0680 30.1610 6.6320 0
M  V30 254 C 29.3590 27.9150 6.9870 0
M  V30 255 H 15.1630 21.8180 20.0820 0
M  V30 256 N 19.0170 18.7110 19.2460 0
M  V30 257 N 19.5350 17.3630 16.7530 0
M  V30 258 O 16.7520 16.6460 18.0690 0
M  V30 259 H 16.7650 17.5110 12.5440 0
M  V30 260 C 18.8390 17.2650 14.3210 0
M  V30 261 H 14.9670 25.8910 4.9250 0
M  V30 262 H 13.6050 25.9340 4.0850 0
M  V30 263 H 14.6060 24.6940 3.9200 0
M  V30 264 C 19.6680 19.3600 21.3310 0
M  V30 265 H 20.9830 22.8390 26.0250 0
M  V30 266 C 21.0880 22.0360 24.2690 0
M  V30 267 H 21.2780 21.6390 22.3000 0
M  V30 268 H 15.1390 32.0310 25.5490 0
M  V30 269 C 17.0180 31.3890 26.0740 0
M  V30 270 H 18.9780 30.7490 26.0690 0
M  V30 271 H 20.0180 38.8490 17.3480 0
M  V30 272 H 21.1400 38.7960 19.2690 0
M  V30 273 C 24.2630 28.8840 18.8240 0
M  V30 274 C 21.9990 28.9520 19.8330 0
M  V30 275 H 20.2200 29.1120 20.8150 0
M  V30 276 H 18.8060 30.4230 21.8870 0
M  V30 277 C 17.8980 32.1700 22.1530 0
M  V30 278 H 17.5240 34.3600 22.2420 0
M  V30 279 C 23.3260 35.6430 15.9620 0
M  V30 280 C 24.0040 33.3480 15.7080 0
M  V30 281 C 25.3760 29.2440 15.3880 0
M  V30 282 C 27.6550 28.3030 14.4370 0
M  V30 283 H 26.1960 31.5550 13.9210 0
M  V30 284 H 25.0620 34.6250 8.0630 0
M  V30 285 H 24.5920 25.2540 6.3210 0
M  V30 286 C 22.6200 24.8140 6.5250 0
M  V30 287 C 21.9540 24.6450 8.8230 0
M  V30 288 H 23.2170 24.9530 10.1300 0
M  V30 289 H 30.1010 31.0900 6.8180 0
M  V30 290 C 30.9270 29.4290 5.4580 0
M  V30 291 C 30.1550 27.3310 5.8810 0
M  V30 292 H 28.8550 27.3150 7.5250 0
M  V30 293 C 20.1360 18.0220 19.6060 0
M  V30 294 C 20.6480 16.9450 17.3660 0
M  V30 295 C 19.8520 16.9020 15.3880 0
M  V30 296 C 19.1340 16.4030 13.0640 0
M  V30 297 H 19.6860 19.8180 22.1620 0
M  V30 298 C 20.5430 18.5230 20.9130 0
M  V30 299 C 21.3420 20.5930 24.6380 0
M  V30 300 C 17.2560 32.5390 27.1540 0
M  V30 301 C 25.0920 28.1240 19.6060 0
M  V30 302 C 24.5800 29.2010 17.3660 0
M  V30 303 H 21.9270 28.0110 19.7090 0
M  V30 304 H 17.1290 31.8380 22.6020 0
M  V30 305 C 22.6650 35.5850 14.7390 0
M  V30 306 H 23.3200 36.4490 16.4680 0
M  V30 307 H 24.4620 32.5850 16.0420 0
M  V30 308 C 23.3470 33.2900 14.4860 0
M  V30 309 C 24.1730 29.8530 15.3300 0
M  V30 310 N 25.6930 28.7830 16.7530 0
M  V30 311 C 28.5690 28.2440 13.4010 0
M  V30 312 N 28.0290 27.6170 15.5440 0
M  V30 313 H 22.4720 24.7620 5.5870 0
M  V30 314 C 21.5350 24.5590 7.3650 0
M  V30 315 H 21.3050 24.4510 9.4900 0
M  V30 316 H 31.4880 29.9670 4.9120 0
M  V30 317 C 30.8910 28.1000 5.2180 0
M  V30 318 H 30.1070 26.4020 5.6810 0
M  V30 319 C 20.9650 17.2620 18.8240 0
M  V30 320 C 21.6040 16.2430 16.5040 0
M  V30 321 C 21.0550 16.2930 15.3300 0
M  V30 322 C 19.5140 17.0770 11.9350 0
M  V30 323 C 19.2100 15.0590 13.1120 0
M  V30 324 H 21.3300 18.2680 21.3800 0
M  V30 325 H 22.2310 20.5130 25.0470 0
M  V30 326 H 21.2990 20.0400 23.8340 0
M  V30 327 H 20.6600 20.2950 25.2780 0
M  V30 328 H 16.4030 32.9730 27.3670 0
M  V30 329 H 17.8770 33.2070 26.7890 0
M  V30 330 H 17.6360 32.1480 27.9670 0
M  V30 331 C 24.6850 27.6230 20.9130 0
M  V30 332 N 26.2110 27.4350 19.2460 0
M  V30 333 C 23.6240 29.9030 16.5040 0
M  V30 334 C 22.6770 34.4060 14.0010 0
M  V30 335 H 22.2100 36.3480 14.4100 0
M  V30 336 H 23.3530 32.4840 13.9840 0
M  V30 337 H 23.7780 30.1950 14.5350 0
M  V30 338 Zn 27.2730 27.7690 17.4630 0
M  V30 339 H 28.4630 28.6350 12.5440 0
M  V30 340 C 29.6240 27.5400 13.8150 0
M  V30 341 C 29.2290 27.1860 15.2190 0
M  V30 342 C 20.2710 24.3470 6.9210 0
M  V30 343 C 31.6350 27.8320 4.0760 0
M  V30 344 C 22.1040 16.5850 19.3800 0
M  V30 345 H 22.4300 15.8470 16.7440 0
M  V30 346 H 21.4500 15.9510 14.5350 0
M  V30 347 H 19.5290 18.0280 11.9610 0
M  V30 348 N 19.8730 16.4500 10.7610 0
M  V30 349 H 19.0320 14.5910 13.9210 0
M  V30 350 C 19.5780 14.3360 11.9080 0
M  V30 351 C 25.5600 26.7860 21.3310 0
M  V30 352 H 23.8980 27.8780 21.3800 0
M  V30 353 C 26.6120 26.6510 20.2910 0
M  V30 354 H 22.7980 30.2990 16.7440 0
M  V30 355 C 22.1740 34.4280 12.5300 0
M  V30 356 N 28.5660 26.2540 18.1040 0
M  V30 357 O 28.4760 29.5000 18.0690 0
M  V30 358 H 30.4200 27.3180 13.3440 0
M  V30 359 C 30.1040 26.4050 16.0640 0
M  V30 360 H 20.1140 24.8790 6.1160 0
M  V30 361 H 19.6320 24.6110 7.6190 0
M  V30 362 H 20.1540 23.3960 6.7160 0
M  V30 363 H 32.1000 26.9770 4.1780 0
M  V30 364 H 32.2960 28.5460 3.9380 0
M  V30 365 H 31.0380 27.7860 3.2980 0
M  V30 366 C 22.2040 15.2800 19.4110 0
M  V30 367 C 23.2290 17.1940 19.8330 0
M  V30 368 C 19.8970 15.1020 10.8370 0
M  V30 369 Zn 20.1860 17.3390 8.8940 0
M  V30 370 H 19.5900 13.3880 11.8720 0
M  V30 371 H 25.5420 26.3280 22.1620 0
M  V30 372 C 27.5920 25.8050 20.2420 0
M  V30 373 H 21.6640 35.2490 12.3700 0
M  V30 374 H 21.5980 33.6500 12.3700 0
M  V30 375 H 22.9430 34.3940 11.9210 0
M  V30 376 C 29.7120 25.9160 17.3660 0
M  V30 377 C 28.6380 25.5830 19.2150 0
M  V30 378 C 31.4390 25.9370 15.6190 0
M  V30 379 H 21.5100 14.8220 18.9530 0
M  V30 380 N 23.1180 14.4900 19.9800 0
M  V30 381 H 23.3010 18.1350 19.7090 0
M  V30 382 C 24.2720 16.5540 20.4510 0
M  V30 383 C 20.1080 14.3610 9.4590 0
M  V30 384 N 22.3670 17.7350 8.9960 0
M  V30 385 N 20.7960 17.7600 6.9070 0
M  V30 386 N 20.5340 15.1850 8.4630 0
M  V30 387 O 19.7130 19.2240 9.6450 0
M  V30 388 O 18.2630 17.0160 8.2900 0
M  V30 389 C 27.8690 24.9870 21.5360 0
M  V30 390 C 30.4440 24.9370 18.1800 0
M  V30 391 C 29.7900 24.8300 19.3220 0
M  V30 392 C 31.6510 25.2300 14.4280 0
M  V30 393 C 32.5910 26.4510 16.2990 0
M  V30 394 C 24.1910 15.1240 20.5220 0
M  V30 395 Zn 23.4370 12.3990 19.6270 0
M  V30 396 H 25.0080 17.0340 20.8150 0
M  V30 397 C 20.0900 12.9450 9.3430 0
M  V30 398 C 23.0900 17.7850 10.1080 0
M  V30 399 C 22.9760 17.7350 7.8190 0
M  V30 400 C 22.0230 17.8000 6.6360 0
M  V30 401 C 19.8280 17.8800 5.8760 0
M  V30 402 C 20.7990 14.6160 7.2720 0
M  V30 403 S 19.4590 20.4920 8.9840 0
M  V30 404 S 17.0450 16.3510 8.5350 0
M  V30 405 C 27.8270 23.5810 21.5130 0
M  V30 406 C 28.0260 25.7090 22.7530 0
M  V30 407 H 31.2370 24.4700 17.9350 0
M  V30 408 H 30.0650 24.3280 20.0820 0
M  V30 409 H 30.9000 24.9000 13.9530 0
M  V30 410 N 32.8600 25.0080 13.9570 0
M  V30 411 H 32.4920 26.9950 17.0730 0
M  V30 412 C 33.8670 26.1310 15.8110 0
M  V30 413 C 25.2670 14.2930 20.9930 0
M  V30 414 N 24.4410 12.8780 17.7040 0
M  V30 415 N 24.1000 10.5270 18.8460 0
M  V30 416 N 25.1950 12.9980 20.7180 0
M  V30 417 O 21.5560 12.2690 18.9000 0
M  V30 418 O 22.7170 11.5490 21.4560 0
M  V30 419 H 19.9180 12.3890 10.0940 0
M  V30 420 C 20.3130 12.4530 8.1790 0
M  V30 421 H 22.6440 17.8150 10.9430 0
M  V30 422 C 24.4410 17.7880 10.0900 0
M  V30 423 C 24.3540 17.7350 7.7870 0
M  V30 424 C 22.5300 18.0250 5.3740 0
M  V30 425 C 20.3280 18.1570 4.5780 0
M  V30 426 H 18.8990 17.7790 6.0500 0
M  V30 427 C 20.7540 13.1850 7.0810 0
M  V30 428 H 21.0220 15.1700 6.5340 0
M  V30 429 C 20.9980 20.8460 8.4050 0
M  V30 430 O 18.5740 20.3810 7.8990 0
M  V30 431 O 19.1440 21.5070 9.9170 0
M  V30 432 C 15.9350 16.8770 7.3070 0
M  V30 433 O 17.2590 14.9240 8.1960 0
M  V30 434 O 16.5560 16.5820 9.8230 0
M  V30 435 H 27.7460 23.1310 20.6820 0
M  V30 436 N 27.9000 22.8330 22.6910 0
M  V30 437 H 28.1200 26.6540 22.7930 0
M  V30 438 C 28.0230 24.8540 23.9360 0
M  V30 439 C 33.9510 25.3590 14.5750 0
M  V30 440 Zn 33.2540 24.0990 11.9780 0
M  V30 441 H 34.6540 26.4110 16.2640 0
M  V30 442 C 26.3620 14.7910 21.7130 0
M  V30 443 C 24.6670 14.1480 17.2730 0
M  V30 444 C 25.0380 11.9210 17.1400 0
M  V30 445 C 24.8600 10.5340 17.7080 0
M  V30 446 C 23.9260 9.3060 19.5660 0
M  V30 447 C 26.0240 12.1830 21.0910 0
M  V30 448 S 20.4940 11.6470 18.1090 0
M  V30 449 H 20.1660 11.5210 8.0630 0
M  V30 450 C 25.2910 18.0550 11.4320 0
M  V30 451 C 25.1050 17.7630 8.8630 0
M  V30 452 H 24.7820 17.7140 6.9380 0
M  V30 453 H 23.4640 18.0490 5.2140 0
M  V30 454 C 21.5890 18.2150 4.3250 0
M  V30 455 H 19.7130 18.3050 3.8720 0
M  V30 456 H 21.0040 12.7730 6.2630 0
M  V30 457 C 21.3230 21.0090 6.9650 0
M  V30 458 C 22.1470 21.1960 9.1880 0
M  V30 459 C 15.1600 15.9850 6.6320 0
M  V30 460 C 15.8690 18.2310 6.9870 0
M  V30 461 C 27.9360 23.5070 23.8560 0
M  V30 462 Zn 28.2910 20.7360 22.7750 0
M  V30 463 H 28.0870 25.2570 24.7940 0
M  V30 464 C 35.2390 25.2510 13.9880 0
M  V30 465 N 31.1860 23.7960 11.6720 0
M  V30 466 N 32.5850 25.9250 11.0540 0
M  V30 467 N 35.2120 24.7500 12.7390 0
M  V30 468 O 33.8670 23.3250 10.1340 0
M  V30 469 O 33.5830 22.0890 12.7610 0
M  V30 470 H 26.4220 15.7230 21.8870 0
M  V30 471 C 27.3300 13.9760 22.1530 0
M  V30 472 H 24.2570 14.8710 17.7350 0
M  V30 473 C 25.5120 14.4380 16.1220 0
M  V30 474 C 25.7440 12.0900 15.9660 0
M  V30 475 C 25.1350 9.3060 17.1930 0
M  V30 476 C 24.3090 8.1800 18.8690 0
M  V30 477 H 23.5730 9.2750 20.4470 0
M  V30 478 C 27.1310 12.4590 21.8910 0
M  V30 479 H 25.9070 11.2840 20.8070 0
M  V30 480 C 21.2330 11.6200 16.4460 0
M  V30 481 O 20.3250 10.2970 18.5660 0
M  V30 482 O 19.2370 12.4410 18.1310 0
M  V30 483 C 25.0680 17.1630 12.4590 0
M  V30 484 C 26.1960 19.1880 11.3390 0
M  V30 485 H 26.0510 17.7630 8.8100 0
M  V30 486 H 21.8930 18.3880 3.4400 0
M  V30 487 H 20.6360 20.8920 6.3210 0
M  V30 488 C 22.6080 21.3320 6.5250 0
M  V30 489 C 23.2740 21.5010 8.8230 0
M  V30 490 H 22.0110 21.1930 10.1300 0
M  V30 491 H 15.1270 15.0560 6.8180 0
M  V30 492 C 14.3010 16.7170 5.4580 0
M  V30 493 C 15.0730 18.8150 5.8810 0
M  V30 494 H 16.3730 18.8310 7.5250 0
M  V30 495 C 27.8600 22.5620 24.9490 0
M  V30 496 N 29.1840 20.6330 20.8550 0
M  V30 497 N 30.4570 21.3230 23.1360 0
M  V30 498 N 27.8940 21.3130 24.8030 0
M  V30 499 O 26.4220 20.1350 22.0160 0
M  V30 500 O 28.7080 18.8240 23.3670 0
M  V30 501 C 36.4840 25.4020 14.5930 0
M  V30 502 C 30.4870 22.8330 12.1210 0
M  V30 503 C 30.4410 24.8200 11.2370 0
M  V30 504 C 31.3100 26.0290 10.7570 0
M  V30 505 C 33.4510 26.9620 10.7300 0
M  V30 506 C 36.3150 24.5800 11.9390 0
M  V30 507 S 34.2470 23.6480 8.7830 0
M  V30 508 H 28.0990 14.3080 22.6020 0
M  V30 509 C 25.8460 15.7940 15.6950 0
M  V30 510 C 26.0450 13.3180 15.5620 0
M  V30 511 H 26.0090 11.3370 15.4550 0
M  V30 512 H 25.5210 9.3000 16.3260 0
M  V30 513 C 24.9300 8.1160 17.7440 0
M  V30 514 H 24.0880 7.3500 19.2690 0
M  V30 515 H 27.7040 11.7860 22.2420 0
M  V30 516 C 21.9020 10.5030 15.9620 0
M  V30 517 C 21.2240 12.7980 15.7080 0
M  V30 518 C 24.3630 15.9510 12.4060 0
M  V30 519 N 25.7980 17.1230 13.6280 0
M  V30 520 C 26.2930 20.2090 10.3390 0
M  V30 521 N 26.9470 19.5690 12.4150 0
M  V30 522 H 22.7560 21.3840 5.5870 0
M  V30 523 C 23.6930 21.5870 7.3650 0
M  V30 524 H 23.9230 21.6950 9.4900 0
M  V30 525 H 13.7400 16.1790 4.9120 0
M  V30 526 C 14.3370 18.0460 5.2180 0
M  V30 527 H 15.1210 19.7440 5.6810 0
M  V30 528 C 27.6040 23.1100 26.2920 0
M  V30 529 C 28.6170 20.2090 19.7180 0
M  V30 530 C 30.4630 20.7380 20.8150 0
M  V30 531 C 31.2650 21.3500 22.0820 0
M  V30 532 C 31.0380 21.8020 24.2690 0
M  V30 533 C 27.8240 20.3630 25.7850 0
M  V30 534 S 25.1430 19.9870 22.7120 0
M  V30 535 S 28.9040 17.6890 22.7560 0
M  V30 536 C 37.6420 25.1400 13.8680 0
M  V30 537 H 36.5410 25.6820 15.4950 0
M  V30 538 H 30.9930 22.1130 12.4810 0
M  V30 539 C 29.0760 22.6550 12.1750 0
M  V30 540 C 29.0820 24.8670 11.2370 0
M  V30 541 C 30.7610 27.1400 10.1610 0
M  V30 542 C 32.9050 28.2350 10.2630 0
M  V30 543 H 34.3880 26.8420 10.8140 0
M  V30 544 H 36.2340 24.3740 11.0190 0
M  V30 545 C 37.5570 24.7310 12.5440 0
M  V30 546 C 33.2700 22.6850 7.6270 0
M  V30 547 O 35.2900 22.7010 8.5830 0
M  V30 548 O 34.3580 25.0760 8.4900 0
M  V30 549 C 26.5130 16.6680 16.5570 0
M  V30 550 C 25.3940 16.0680 14.3040 0
M  V30 551 H 26.6630 13.4190 14.8460 0
M  V30 552 H 25.2100 7.2970 17.3480 0
M  V30 553 C 22.5630 10.5610 14.7390 0
M  V30 554 H 21.9080 9.6970 16.4680 0
M  V30 555 H 20.7660 13.5610 16.0420 0
M  V30 556 C 21.8810 12.8560 14.4860 0
M  V30 557 C 24.5260 15.2740 13.5790 0
M  V30 558 H 23.8500 15.6470 11.6630 0
M  V30 559 Zn 27.2530 18.5500 14.2060 0
M  V30 560 H 25.7920 20.2370 9.5300 0
M  V30 561 C 27.1550 21.0700 10.7030 0
M  V30 562 C 27.6070 20.6030 12.0100 0
M  V30 563 C 24.9570 21.7990 6.9210 0
M  V30 564 C 13.5930 18.3140 4.0760 0
M  V30 565 H 27.5530 24.0450 26.4560 0
M  V30 566 C 27.4350 22.1560 27.3320 0
M  V30 567 H 27.6670 20.1380 19.7310 0
M  V30 568 C 29.2110 19.8670 18.5530 0
M  V30 569 C 31.3250 20.5530 19.6420 0
M  V30 570 C 32.5250 21.8150 22.0960 0
M  V30 571 C 32.3110 22.1720 24.4690 0
M  V30 572 H 30.4660 21.8820 25.0200 0
M  V30 573 C 27.5050 20.8830 27.1010 0
M  V30 574 H 27.9720 19.4400 25.6200 0
M  V30 575 C 24.8300 21.6120 23.2290 0
M  V30 576 O 24.0910 19.6270 21.8110 0
M  V30 577 O 25.3310 19.0950 23.9140 0
M  V30 578 C 28.6440 16.5290 23.9220 0
M  V30 579 O 30.1460 17.5110 22.2820 0
M  V30 580 O 27.9570 17.4490 21.7040 0
M  V30 581 H 38.4920 25.2420 14.2810 0
M  V30 582 C 28.4210 21.4790 12.8370 0
M  V30 583 C 28.4150 23.7070 11.7520 0
M  V30 584 H 28.6020 25.6200 10.9120 0
M  V30 585 H 29.8540 27.1340 9.8810 0
M  V30 586 C 31.5180 28.2380 9.9740 0
M  V30 587 H 33.4480 29.0100 10.1650 0
M  V30 588 H 38.3500 24.5500 12.0500 0
M  V30 589 C 32.2480 23.4140 7.0270 0
M  V30 590 C 33.5020 21.3690 7.2450 0
M  V30 591 C 26.7900 16.3600 17.9350 0
M  V30 592 N 27.0860 17.8490 16.1130 0
M  V30 593 C 22.5510 11.7400 14.0010 0
M  V30 594 H 23.0180 9.7980 14.4100 0
M  V30 595 H 21.8750 13.6620 13.9840 0
M  V30 596 H 24.1340 14.4500 13.8370 0
M  V30 597 N 28.3490 20.1660 14.9040 0
M  V30 598 O 28.8800 17.3390 13.5170 0
M  V30 599 H 27.4380 21.8460 10.2370 0
M  V30 600 H 25.1140 21.2670 6.1160 0
M  V30 601 H 25.5960 21.5350 7.6190 0
M  V30 602 H 25.0740 22.7500 6.7160 0
M  V30 603 H 13.1280 19.1690 4.1780 0
M  V30 604 H 12.9320 17.6000 3.9380 0
M  V30 605 H 14.1900 18.3600 3.2980 0
M  V30 606 H 27.2690 22.4610 28.2160 0
M  V30 607 C 28.4940 19.4550 17.3170 0
M  V30 608 C 30.6650 20.0740 18.5620 0
M  V30 609 H 32.2540 20.7530 19.6420 0
M  V30 610 H 33.0100 21.8980 21.2820 0
M  V30 611 C 33.0890 22.1530 23.2250 0
M  V30 612 H 32.6640 22.4180 25.3140 0
M  V30 613 H 27.3450 20.2730 27.8120 0
M  V30 614 C 24.6070 21.8610 24.7230 0
M  V30 615 C 24.4650 22.6240 22.4250 0
M  V30 616 C 29.5190 15.4620 24.3710 0
M  V30 617 C 27.3840 16.3730 24.7180 0
M  V30 618 C 28.7620 21.2860 14.2240 0
M  V30 619 H 27.4650 23.7010 11.7880 0
M  V30 620 H 31.1140 29.0290 9.6410 0
M  V30 621 H 32.0910 24.3130 7.2900 0
M  V30 622 C 31.4610 22.8270 6.0450 0
M  V30 623 C 32.7120 20.7840 6.2630 0
M  V30 624 H 34.1980 20.8700 7.6540 0
M  V30 625 C 27.5590 17.3390 18.3570 0
M  V30 626 H 26.4830 15.6130 18.4330 0
M  V30 627 C 27.7820 18.3570 17.2330 0
M  V30 628 C 23.0540 11.7180 12.5300 0
M  V30 629 C 28.7230 20.4210 16.2110 0
M  V30 630 H 31.1590 19.8610 17.7800 0
M  V30 631 H 34.0080 22.3870 23.2420 0
M  V30 632 H 24.6670 21.1560 25.3580 0
M  V30 633 C 24.3210 23.1250 25.0910 0
M  V30 634 C 24.1640 23.8140 22.9130 0
M  V30 635 H 24.4260 22.4820 21.4870 0
M  V30 636 H 30.3000 15.3270 23.8470 0
M  V30 637 C 29.3920 14.7170 25.3180 0
M  V30 638 C 27.1130 15.4990 25.6830 0
M  V30 639 H 26.6820 16.9760 24.5000 0
M  V30 640 C 29.3920 22.2450 15.0680 0
M  V30 641 H 30.7610 23.3250 5.6360 0
M  V30 642 C 31.6930 21.5130 5.6630 0
M  V30 643 H 32.8720 19.8830 6.0010 0
M  V30 644 H 27.9240 17.4030 19.2290 0
M  V30 645 H 23.5640 10.8970 12.3700 0
M  V30 646 H 23.6300 12.4960 12.3700 0
M  V30 647 H 22.2850 11.7520 11.9210 0
M  V30 648 C 29.4220 21.6240 16.2990 0
M  V30 649 H 24.2450 23.3070 26.0250 0
M  V30 650 C 24.1400 24.1100 24.2690 0
M  V30 651 H 23.9500 24.5070 22.3000 0
M  V30 652 H 30.0890 14.1150 25.5490 0
M  V30 653 C 28.2100 14.7570 26.0740 0
M  V30 654 H 26.2500 15.3970 26.0690 0
M  V30 655 H 29.7180 23.1100 14.8330 0
M  V30 656 C 30.9960 20.7960 4.5520 0
M  V30 657 H 29.8470 21.9620 17.0770 0
M  V30 658 C 23.8860 25.5530 24.6380 0
M  V30 659 C 27.9720 13.6070 27.1540 0
M  V30 660 H 30.2610 20.2550 4.9250 0
M  V30 661 H 31.6230 20.2120 4.0850 0
M  V30 662 H 30.6220 21.4520 3.9200 0
M  V30 663 H 22.9970 25.6330 25.0470 0
M  V30 664 H 23.9290 26.1060 23.8340 0
M  V30 665 H 24.5680 25.8510 25.2780 0
M  V30 666 H 28.8250 13.1730 27.3670 0
M  V30 667 H 27.3510 12.9390 26.7890 0
M  V30 668 H 27.5920 13.9980 27.9670 0
M  V30 END ATOM
M  V30 BEGIN BOND
M  V30 1 1   1   3
M  V30 2 1   1   4
M  V30 3 1   1   2
M  V30 4 1   2   5
M  V30 5 1   2   6
M  V30 6 1   3   7
M  V30 7 1   3   8
M  V30 8 1   4  10
M  V30 9 1   4   9
M  V30 10 1   6   9
M  V30 11 1   6  11
M  V30 12 1   7  12
M  V30 13 1   7  13
M  V30 14 1   8  15
M  V30 15 1   8  14
M  V30 16 1   9  16
M  V30 17 1  10  13
M  V30 18 1  10  19
M  V30 19 1  10  18
M  V30 20 1  10  17
M  V30 21 1  12  21
M  V30 22 1  12  20
M  V30 23 1  13  22
M  V30 24 1  14  24
M  V30 25 1  14  23
M  V30 26 1  15  26
M  V30 27 1  15  25
M  V30 28 1  16  27
M  V30 29 1  16  28
M  V30 30 1  17  29
M  V30 31 1  17  27
M  V30 32 1  18  31
M  V30 33 1  18  30
M  V30 34 1  20  32
M  V30 35 1  20  22
M  V30 36 1  22  33
M  V30 37 1  24  34
M  V30 38 1  24  35
M  V30 39 1  26  36
M  V30 40 1  26  34
M  V30 41 1  27  37
M  V30 42 1  28  39
M  V30 43 1  28  38
M  V30 44 1  29  41
M  V30 45 1  29  40
M  V30 46 1  30  42
M  V30 47 1  30  41
M  V30 48 1  31  33
M  V30 49 1  31  43
M  V30 50 1  33  44
M  V30 51 1  35  49
M  V30 52 1  35  46
M  V30 53 1  35  48
M  V30 54 1  35  50
M  V30 55 1  35  47
M  V30 56 1  37  40
M  V30 57 1  37  51
M  V30 58 1  38  52
M  V30 59 1  38  53
M  V30 60 1  39  54
M  V30 61 1  39  55
M  V30 62 1  40  56
M  V30 63 1  41  57
M  V30 64 1  42  43
M  V30 65 1  42  58
M  V30 66 1  43  59
M  V30 67 1  44  61
M  V30 68 1  44  60
M  V30 69 1  45  34
M  V30 70 1  45  62
M  V30 71 1  45  46
M  V30 72 1  46  63
M  V30 73 1  47  64
M  V30 74 1  47  65
M  V30 75 1  48  66
M  V30 76 1  48  67
M  V30 77 1  49  68
M  V30 78 1  53  69
M  V30 79 1  53  70
M  V30 80 1  55  71
M  V30 81 1  55  69
M  V30 82 1  57  73
M  V30 83 1  57  72
M  V30 84 1  60  75
M  V30 85 1  60  74
M  V30 86 1  61  77
M  V30 87 1  61  76
M  V30 88 1  62  78
M  V30 89 1  62  79
M  V30 90 1  63  80
M  V30 91 1  63  81
M  V30 92 1  64  82
M  V30 93 1  64  83
M  V30 94 1  65  67
M  V30 95 1  65  84
M  V30 96 1  66  85
M  V30 97 1  66  86
M  V30 98 1  67  87
M  V30 99 1  68  88
M  V30 100 1  68  90
M  V30 101 1  68  89
M  V30 102 1  70  96
M  V30 103 1  70  94
M  V30 104 1  70  93
M  V30 105 1  70  97
M  V30 106 1  70  95
M  V30 107 1  72  99
M  V30 108 1  72  98
M  V30 109 1  73 100
M  V30 110 1  73 101
M  V30 111 1  75 102
M  V30 112 1  75 103
M  V30 113 1  77 104
M  V30 114 1  77 102
M  V30 115 1  79 105
M  V30 116 1  79  80
M  V30 117 1  80 106
M  V30 118 1  83 107
M  V30 119 1  83 108
M  V30 120 1  84 109
M  V30 121 1  84 108
M  V30 122 1  86 110
M  V30 123 1  86 111
M  V30 124 1  87 111
M  V30 125 1  87 112
M  V30 126 1  88 113
M  V30 127 1  88 114
M  V30 128 1  91  69
M  V30 129 1  91 115
M  V30 130 1  91  93
M  V30 131 1  92 116
M  V30 132 1  92  95
M  V30 133 1  92 117
M  V30 134 1  93 118
M  V30 135 1  94 119
M  V30 136 1  94 116
M  V30 137 1  95 120
M  V30 138 1  96 121
M  V30 139 1  97 122
M  V30 140 1  99 123
M  V30 141 1  99 124
M  V30 142 1 101 125
M  V30 143 1 101 123
M  V30 144 1 103 127
M  V30 145 1 103 131
M  V30 146 1 103 129
M  V30 147 1 103 130
M  V30 148 1 103 128
M  V30 149 1 107 133
M  V30 150 1 107 132
M  V30 151 1 108 134
M  V30 152 1 111 135
M  V30 153 1 113 137
M  V30 154 1 113 136
M  V30 155 1 114 138
M  V30 156 1 114 139
M  V30 157 1 115 140
M  V30 158 1 115 141
M  V30 159 1 116 142
M  V30 160 1 117 143
M  V30 161 1 117 144
M  V30 162 1 118 145
M  V30 163 1 118 146
M  V30 164 1 119 147
M  V30 165 1 119 148
M  V30 166 1 120 150
M  V30 167 1 120 149
M  V30 168 1 121 152
M  V30 169 1 121 151
M  V30 170 1 121 153
M  V30 171 1 122 156
M  V30 172 1 122 155
M  V30 173 1 122 154
M  V30 174 1 124 158
M  V30 175 1 124 161
M  V30 176 1 124 159
M  V30 177 1 124 160
M  V30 178 1 124 162
M  V30 179 1 126 102
M  V30 180 1 126 163
M  V30 181 1 126 127
M  V30 182 1 127 164
M  V30 183 1 128 166
M  V30 184 1 128 165
M  V30 185 1 129 168
M  V30 186 1 129 167
M  V30 187 1 130 169
M  V30 188 1 131 170
M  V30 189 1 132 172
M  V30 190 1 132 171
M  V30 191 1 133 173
M  V30 192 1 133 174
M  V30 193 1 137 175
M  V30 194 1 137 176
M  V30 195 1 138 176
M  V30 196 1 138 177
M  V30 197 1 141 178
M  V30 198 1 141 145
M  V30 199 1 142 179
M  V30 200 1 142 180
M  V30 201 1 144 149
M  V30 202 1 144 181
M  V30 203 1 145 182
M  V30 204 1 148 183
M  V30 205 1 148 179
M  V30 206 1 149 184
M  V30 207 1 151 186
M  V30 208 1 151 185
M  V30 209 1 154 187
M  V30 210 1 154 188
M  V30 211 1 157 123
M  V30 212 1 157 189
M  V30 213 1 157 158
M  V30 214 1 158 190
M  V30 215 1 159 191
M  V30 216 1 159 192
M  V30 217 1 160 193
M  V30 218 1 160 194
M  V30 219 1 161 195
M  V30 220 1 163 197
M  V30 221 1 163 196
M  V30 222 1 164 198
M  V30 223 1 164 199
M  V30 224 1 165 200
M  V30 225 1 165 201
M  V30 226 1 166 202
M  V30 227 1 167 166
M  V30 228 1 167 203
M  V30 229 1 168 205
M  V30 230 1 168 204
M  V30 231 1 169 207
M  V30 232 1 169 206
M  V30 233 1 169 208
M  V30 234 1 170 209
M  V30 235 1 170 210
M  V30 236 1 170 211
M  V30 237 1 171 212
M  V30 238 1 171 213
M  V30 239 1 172 215
M  V30 240 1 172 214
M  V30 241 1 173 217
M  V30 242 1 173 216
M  V30 243 1 174 218
M  V30 244 1 174 215
M  V30 245 1 176 219
M  V30 246 1 179 220
M  V30 247 1 183 214
M  V30 248 1 183 221
M  V30 249 1 185 223
M  V30 250 1 185 222
M  V30 251 1 186 225
M  V30 252 1 186 224
M  V30 253 1 187 226
M  V30 254 1 187 227
M  V30 255 1 188 229
M  V30 256 1 188 228
M  V30 257 1 189 230
M  V30 258 1 189 231
M  V30 259 1 190 232
M  V30 260 1 190 233
M  V30 261 1 191 234
M  V30 262 1 191 235
M  V30 263 1 192 236
M  V30 264 1 193 192
M  V30 265 1 193 237
M  V30 266 1 194 239
M  V30 267 1 194 238
M  V30 268 1 195 240
M  V30 269 1 195 242
M  V30 270 1 195 241
M  V30 271 1 197 243
M  V30 272 1 197 198
M  V30 273 1 198 244
M  V30 274 1 201 246
M  V30 275 1 201 245
M  V30 276 1 202 247
M  V30 277 1 202 246
M  V30 278 1 203 249
M  V30 279 1 203 248
M  V30 280 1 204 250
M  V30 281 1 204 249
M  V30 282 1 206 251
M  V30 283 1 206 252
M  V30 284 1 209 253
M  V30 285 1 209 254
M  V30 286 1 213 214
M  V30 287 1 213 255
M  V30 288 1 215 257
M  V30 289 1 215 258
M  V30 290 1 215 256
M  V30 291 1 216 259
M  V30 292 1 216 218
M  V30 293 1 218 260
M  V30 294 1 219 263
M  V30 295 1 219 262
M  V30 296 1 219 261
M  V30 297 1 221 256
M  V30 298 1 221 264
M  V30 299 1 223 266
M  V30 300 1 223 265
M  V30 301 1 224 267
M  V30 302 1 224 266
M  V30 303 1 227 268
M  V30 304 1 227 269
M  V30 305 1 228 270
M  V30 306 1 228 269
M  V30 307 1 231 271
M  V30 308 1 231 232
M  V30 309 1 232 272
M  V30 310 1 235 273
M  V30 311 1 235 274
M  V30 312 1 236 274
M  V30 313 1 236 275
M  V30 314 1 237 276
M  V30 315 1 237 277
M  V30 316 1 238 277
M  V30 317 1 238 278
M  V30 318 1 240 280
M  V30 319 1 240 279
M  V30 320 1 245 282
M  V30 321 1 245 281
M  V30 322 1 246 283
M  V30 323 1 249 284
M  V30 324 1 251 285
M  V30 325 1 251 286
M  V30 326 1 252 287
M  V30 327 1 252 288
M  V30 328 1 253 290
M  V30 329 1 253 289
M  V30 330 1 254 291
M  V30 331 1 254 292
M  V30 332 1 256 293
M  V30 333 1 257 295
M  V30 334 1 257 294
M  V30 335 1 260 296
M  V30 336 1 260 295
M  V30 337 1 264 298
M  V30 338 1 264 297
M  V30 339 1 266 299
M  V30 340 1 269 300
M  V30 341 1 273 302
M  V30 342 1 273 301
M  V30 343 1 274 303
M  V30 344 1 277 304
M  V30 345 1 279 305
M  V30 346 1 279 306
M  V30 347 1 280 308
M  V30 348 1 280 307
M  V30 349 1 281 309
M  V30 350 1 281 310
M  V30 351 1 282 311
M  V30 352 1 282 312
M  V30 353 1 286 313
M  V30 354 1 286 314
M  V30 355 1 287 314
M  V30 356 1 287 315
M  V30 357 1 290 316
M  V30 358 1 290 317
M  V30 359 1 291 317
M  V30 360 1 291 318
M  V30 361 1 293 319
M  V30 362 1 293 298
M  V30 363 1 294 320
M  V30 364 1 294 319
M  V30 365 1 295 321
M  V30 366 1 296 322
M  V30 367 1 296 323
M  V30 368 1 298 324
M  V30 369 1 299 326
M  V30 370 1 299 325
M  V30 371 1 299 327
M  V30 372 1 300 329
M  V30 373 1 300 328
M  V30 374 1 300 330
M  V30 375 1 301 332
M  V30 376 1 301 331
M  V30 377 1 302 333
M  V30 378 1 302 310
M  V30 379 1 305 334
M  V30 380 1 305 335
M  V30 381 1 308 336
M  V30 382 1 308 334
M  V30 383 1 309 337
M  V30 384 1 309 333
M  V30 385 1 310 338
M  V30 386 1 311 339
M  V30 387 1 311 340
M  V30 388 1 312 341
M  V30 389 1 312 338
M  V30 390 1 314 342
M  V30 391 1 317 343
M  V30 392 1 319 344
M  V30 393 1 320 321
M  V30 394 1 320 345
M  V30 395 1 321 346
M  V30 396 1 322 348
M  V30 397 1 322 347
M  V30 398 1 323 350
M  V30 399 1 323 349
M  V30 400 1 331 351
M  V30 401 1 331 352
M  V30 402 1 332 338
M  V30 403 1 332 353
M  V30 404 1 333 354
M  V30 405 1 334 355
M  V30 406 1 338 357
M  V30 407 1 338 356
M  V30 408 1 340 358
M  V30 409 1 340 341
M  V30 410 1 341 359
M  V30 411 1 342 360
M  V30 412 1 342 362
M  V30 413 1 342 361
M  V30 414 1 343 365
M  V30 415 1 343 364
M  V30 416 1 343 363
M  V30 417 1 344 366
M  V30 418 1 344 367
M  V30 419 1 348 369
M  V30 420 1 348 368
M  V30 421 1 350 368
M  V30 422 1 350 370
M  V30 423 1 351 353
M  V30 424 1 351 371
M  V30 425 1 353 372
M  V30 426 1 355 375
M  V30 427 1 355 373
M  V30 428 1 355 374
M  V30 429 1 356 376
M  V30 430 1 356 377
M  V30 431 1 359 378
M  V30 432 1 359 376
M  V30 433 1 366 379
M  V30 434 1 366 380
M  V30 435 1 367 381
M  V30 436 1 367 382
M  V30 437 1 369 385
M  V30 438 1 369 388
M  V30 439 1 369 386
M  V30 440 1 369 384
M  V30 441 1 369 387
M  V30 442 1 372 377
M  V30 443 1 372 389
M  V30 444 1 376 390
M  V30 445 1 377 391
M  V30 446 1 378 392
M  V30 447 1 378 393
M  V30 448 1 380 395
M  V30 449 1 380 394
M  V30 450 1 382 394
M  V30 451 1 382 396
M  V30 452 1 383 368
M  V30 453 1 383 386
M  V30 454 1 383 397
M  V30 455 1 384 399
M  V30 456 1 384 398
M  V30 457 1 385 401
M  V30 458 1 385 400
M  V30 459 1 386 402
M  V30 460 1 387 403
M  V30 461 1 388 404
M  V30 462 1 389 405
M  V30 463 1 389 406
M  V30 464 1 390 407
M  V30 465 1 390 391
M  V30 466 1 391 408
M  V30 467 1 392 409
M  V30 468 1 392 410
M  V30 469 1 393 412
M  V30 470 1 393 411
M  V30 471 1 395 414
M  V30 472 1 395 415
M  V30 473 1 395 417
M  V30 474 1 395 416
M  V30 475 1 395 418
M  V30 476 1 397 420
M  V30 477 1 397 419
M  V30 478 1 398 422
M  V30 479 1 398 421
M  V30 480 1 399 423
M  V30 481 1 400 399
M  V30 482 1 400 424
M  V30 483 1 401 425
M  V30 484 1 401 426
M  V30 485 1 402 428
M  V30 486 1 402 427
M  V30 487 1 403 430
M  V30 488 1 403 429
M  V30 489 1 403 431
M  V30 490 1 404 432
M  V30 491 1 404 433
M  V30 492 1 404 434
M  V30 493 1 405 435
M  V30 494 1 405 436
M  V30 495 1 406 437
M  V30 496 1 406 438
M  V30 497 1 410 440
M  V30 498 1 410 439
M  V30 499 1 412 439
M  V30 500 1 412 441
M  V30 501 1 413 394
M  V30 502 1 413 416
M  V30 503 1 413 442
M  V30 504 1 414 444
M  V30 505 1 414 443
M  V30 506 1 415 445
M  V30 507 1 415 446
M  V30 508 1 416 447
M  V30 509 1 417 448
M  V30 510 1 420 427
M  V30 511 1 420 449
M  V30 512 1 422 451
M  V30 513 1 422 450
M  V30 514 1 423 452
M  V30 515 1 423 451
M  V30 516 1 424 454
M  V30 517 1 424 453
M  V30 518 1 425 455
M  V30 519 1 425 454
M  V30 520 1 427 456
M  V30 521 1 429 457
M  V30 522 1 429 458
M  V30 523 1 432 459
M  V30 524 1 432 460
M  V30 525 1 436 462
M  V30 526 1 436 461
M  V30 527 1 438 461
M  V30 528 1 438 463
M  V30 529 1 440 468
M  V30 530 1 440 466
M  V30 531 1 440 465
M  V30 532 1 440 467
M  V30 533 1 440 469
M  V30 534 1 442 470
M  V30 535 1 442 471
M  V30 536 1 443 473
M  V30 537 1 443 472
M  V30 538 1 444 474
M  V30 539 1 445 444
M  V30 540 1 445 475
M  V30 541 1 446 476
M  V30 542 1 446 477
M  V30 543 1 447 479
M  V30 544 1 447 478
M  V30 545 1 448 480
M  V30 546 1 448 482
M  V30 547 1 448 481
M  V30 548 1 450 484
M  V30 549 1 450 483
M  V30 550 1 451 485
M  V30 551 1 454 486
M  V30 552 1 457 487
M  V30 553 1 457 488
M  V30 554 1 458 489
M  V30 555 1 458 490
M  V30 556 1 459 492
M  V30 557 1 459 491
M  V30 558 1 460 493
M  V30 559 1 460 494
M  V30 560 1 462 496
M  V30 561 1 462 499
M  V30 562 1 462 497
M  V30 563 1 462 500
M  V30 564 1 462 498
M  V30 565 1 464 439
M  V30 566 1 464 467
M  V30 567 1 464 501
M  V30 568 1 465 503
M  V30 569 1 465 502
M  V30 570 1 466 505
M  V30 571 1 466 504
M  V30 572 1 467 506
M  V30 573 1 468 507
M  V30 574 1 471 478
M  V30 575 1 471 508
M  V30 576 1 473 510
M  V30 577 1 473 509
M  V30 578 1 474 511
M  V30 579 1 474 510
M  V30 580 1 475 512
M  V30 581 1 475 513
M  V30 582 1 476 513
M  V30 583 1 476 514
M  V30 584 1 478 515
M  V30 585 1 480 517
M  V30 586 1 480 516
M  V30 587 1 483 518
M  V30 588 1 483 519
M  V30 589 1 484 520
M  V30 590 1 484 521
M  V30 591 1 488 522
M  V30 592 1 488 523
M  V30 593 1 489 523
M  V30 594 1 489 524
M  V30 595 1 492 525
M  V30 596 1 492 526
M  V30 597 1 493 526
M  V30 598 1 493 527
M  V30 599 1 495 461
M  V30 600 1 495 498
M  V30 601 1 495 528
M  V30 602 1 496 529
M  V30 603 1 496 530
M  V30 604 1 497 531
M  V30 605 1 497 532
M  V30 606 1 498 533
M  V30 607 1 499 534
M  V30 608 1 500 535
M  V30 609 1 501 536
M  V30 610 1 501 537
M  V30 611 1 502 539
M  V30 612 1 502 538
M  V30 613 1 503 540
M  V30 614 1 504 503
M  V30 615 1 504 541
M  V30 616 1 505 542
M  V30 617 1 505 543
M  V30 618 1 506 544
M  V30 619 1 506 545
M  V30 620 1 507 546
M  V30 621 1 507 548
M  V30 622 1 507 547
M  V30 623 1 509 550
M  V30 624 1 509 549
M  V30 625 1 510 551
M  V30 626 1 513 552
M  V30 627 1 516 553
M  V30 628 1 516 554
M  V30 629 1 517 556
M  V30 630 1 517 555
M  V30 631 1 518 558
M  V30 632 1 518 557
M  V30 633 1 519 559
M  V30 634 1 519 550
M  V30 635 1 520 560
M  V30 636 1 520 561
M  V30 637 1 521 562
M  V30 638 1 521 559
M  V30 639 1 523 563
M  V30 640 1 526 564
M  V30 641 1 528 565
M  V30 642 1 528 566
M  V30 643 1 529 568
M  V30 644 1 529 567
M  V30 645 1 530 569
M  V30 646 1 531 530
M  V30 647 1 531 570
M  V30 648 1 532 571
M  V30 649 1 532 572
M  V30 650 1 533 574
M  V30 651 1 533 573
M  V30 652 1 534 576
M  V30 653 1 534 575
M  V30 654 1 534 577
M  V30 655 1 535 580
M  V30 656 1 535 579
M  V30 657 1 535 578
M  V30 658 1 536 545
M  V30 659 1 536 581
M  V30 660 1 539 583
M  V30 661 1 539 582
M  V30 662 1 540 584
M  V30 663 1 540 583
M  V30 664 1 541 585
M  V30 665 1 541 586
M  V30 666 1 542 586
M  V30 667 1 542 587
M  V30 668 1 545 588
M  V30 669 1 546 589
M  V30 670 1 546 590
M  V30 671 1 549 592
M  V30 672 1 549 591
M  V30 673 1 550 557
M  V30 674 1 553 593
M  V30 675 1 553 594
M  V30 676 1 556 595
M  V30 677 1 556 593
M  V30 678 1 557 596
M  V30 679 1 559 598
M  V30 680 1 559 597
M  V30 681 1 559 592
M  V30 682 1 561 599
M  V30 683 1 561 562
M  V30 684 1 562 582
M  V30 685 1 563 600
M  V30 686 1 563 602
M  V30 687 1 563 601
M  V30 688 1 564 605
M  V30 689 1 564 604
M  V30 690 1 564 603
M  V30 691 1 566 573
M  V30 692 1 566 606
M  V30 693 1 568 607
M  V30 694 1 568 608
M  V30 695 1 569 608
M  V30 696 1 569 609
M  V30 697 1 570 610
M  V30 698 1 570 611
M  V30 699 1 571 611
M  V30 700 1 571 612
M  V30 701 1 573 613
M  V30 702 1 575 615
M  V30 703 1 575 614
M  V30 704 1 578 616
M  V30 705 1 578 617
M  V30 706 1 582 618
M  V30 707 1 583 619
M  V30 708 1 586 620
M  V30 709 1 589 622
M  V30 710 1 589 621
M  V30 711 1 590 623
M  V30 712 1 590 624
M  V30 713 1 591 625
M  V30 714 1 591 626
M  V30 715 1 592 627
M  V30 716 1 593 628
M  V30 717 1 597 618
M  V30 718 1 597 629
M  V30 719 1 607 629
M  V30 720 1 607 627
M  V30 721 1 608 630
M  V30 722 1 611 631
M  V30 723 1 614 633
M  V30 724 1 614 632
M  V30 725 1 615 635
M  V30 726 1 615 634
M  V30 727 1 616 636
M  V30 728 1 616 637
M  V30 729 1 617 639
M  V30 730 1 617 638
M  V30 731 1 618 640
M  V30 732 1 622 641
M  V30 733 1 622 642
M  V30 734 1 623 642
M  V30 735 1 623 643
M  V30 736 1 625 627
M  V30 737 1 625 644
M  V30 738 1 628 647
M  V30 739 1 628 645
M  V30 740 1 628 646
M  V30 741 1 629 648
M  V30 742 1 633 650
M  V30 743 1 633 649
M  V30 744 1 634 651
M  V30 745 1 634 650
M  V30 746 1 637 652
M  V30 747 1 637 653
M  V30 748 1 638 654
M  V30 749 1 638 653
M  V30 750 1 640 655
M  V30 751 1 640 648
M  V30 752 1 642 656
M  V30 753 1 648 657
M  V30 754 1 650 658
M  V30 755 1 653 659
M  V30 756 1 656 662
M  V30 757 1 656 661
M  V30 758 1 656 660
M  V30 759 1 658 664
M  V30 760 1 658 663
M  V30 761 1 658 665
M  V30 762 1 659 667
M  V30 763 1 659 666
M  V30 764 1 659 668
M  V30 765 1 M   END
M  V30 END BOND
M  V30 END CTAB

