     RDKit          3D

  0  0  0  0  0  0  0  0  0  0999 V3000
M  V30 BEGIN CTAB
M  V30 COUNTS 400 408 0 0 0
M  V30 BEGIN ATOM
M  V30 1 C -5.6390 5.7260 -8.4260 0
M  V30 2 C -4.3070 6.1620 -8.6060 0
M  V30 3 C -6.4830 5.7620 -9.5650 0
M  V30 4 C -6.1840 5.3310 -7.0480 0
M  V30 5 H -3.7620 6.1970 -7.8560 0
M  V30 6 C -3.7530 6.5370 -9.8120 0
M  V30 7 C -5.9550 6.1010 -10.8230 0
M  V30 8 O -7.7620 5.3660 -9.5170 0
M  V30 9 C -6.7020 6.4800 -6.2720 0
M  V30 10 H -6.9470 4.7380 -7.2100 0
M  V30 11 C -5.1330 4.4840 -6.2690 0
M  V30 12 C -4.6460 6.5270 -10.9280 0
M  V30 13 C -2.3340 6.9420 -9.9470 0
M  V30 14 C -6.8830 6.2240 -11.9470 0
M  V30 15 C -5.8940 7.2350 -5.3930 0
M  V30 16 C -8.0560 6.8700 -6.3590 0
M  V30 17 H -4.3250 5.0060 -6.1400 0
M  V30 18 H -5.4850 4.2580 -5.3910 0
M  V30 19 C -4.7990 3.2170 -7.0180 0
M  V30 20 O -4.1230 6.9260 -12.1650 0
M  V30 21 H -2.1140 6.8270 -10.8980 0
M  V30 22 C -1.3230 6.0650 -9.1680 0
M  V30 23 C -2.1670 8.4970 -9.6470 0
M  V30 24 H -7.7690 5.9820 -11.8120 0
M  V30 25 N -6.5490 6.6290 -13.0750 0
M  V30 26 C -6.3900 8.2970 -4.6060 0
M  V30 27 H -4.9920 7.0200 -5.3280 0
M  V30 28 C -8.5880 7.9120 -5.5800 0
M  V30 29 O -8.8690 6.2240 -7.2440 0
M  V30 30 H -4.6750 3.4230 -7.9550 0
M  V30 31 H -5.5400 2.5960 -6.9410 0
M  V30 32 S -3.3220 2.4470 -6.3810 0
M  V30 33 H -1.4720 6.1710 -8.2180 0
M  V30 34 H -1.4630 5.1330 -9.3960 0
M  V30 35 C 0.1050 6.4650 -9.5120 0
M  V30 36 C -1.9730 8.9740 -8.3740 0
M  V30 37 C -2.2150 9.3740 -10.6960 0
M  V30 38 H -5.7330 6.8560 -13.2350 0
M  V30 39 N -7.4890 6.7160 -14.0480 0
M  V30 40 C -5.4670 9.1130 -3.7150 0
M  V30 41 C -7.7180 8.6560 -4.7410 0
M  V30 42 C -9.9850 8.2970 -5.7010 0
M  V30 43 O -3.0590 1.2570 -7.1600 0
M  V30 44 O -2.2060 3.3710 -6.5460 0
M  V30 45 O -3.5290 2.1810 -4.9820 0
M  V30 46 H 0.2600 7.3680 -9.1890 0
M  V30 47 H 0.1990 6.4840 -10.4790 0
M  V30 48 S 1.3560 5.4060 -8.8450 0
M  V30 49 H -1.9420 8.3530 -7.6810 0
M  V30 50 C -1.8240 10.3590 -8.0220 0
M  V30 51 C -2.1050 10.7600 -10.4040 0
M  V30 52 O -2.4130 9.0510 -11.9870 0
M  V30 53 H -8.2900 6.4510 -13.8830 0
M  V30 54 C -7.1950 7.2240 -15.2950 0
M  V30 55 C -4.7200 10.2210 -4.4570 0
M  V30 56 H -6.0300 9.5510 -3.0400 0
M  V30 57 C -4.4650 8.2040 -2.9510 0
M  V30 58 O -8.2980 9.6920 -4.0200 0
M  V30 59 H -10.3140 8.9980 -5.1860 0
M  V30 60 N -10.7500 7.7020 -6.4860 0
M  V30 61 O 2.6150 6.0030 -9.3250 0
M  V30 62 O 1.2530 5.4340 -7.3970 0
M  V30 63 O 1.1380 4.0590 -9.2430 0
M  V30 64 C -1.9430 11.1960 -9.1000 0
M  V30 65 C -1.6390 10.8010 -6.6060 0
M  V30 66 C -2.2060 11.6730 -11.5650 0
M  V30 67 C -8.3290 7.3420 -16.2290 0
M  V30 68 O -6.0430 7.5990 -15.5790 0
M  V30 69 C -3.5950 10.0310 -5.1830 0
M  V30 70 C -5.3440 11.4580 -4.4870 0
M  V30 71 H -4.0080 7.5910 -3.5480 0
M  V30 72 H -3.8180 8.7180 -2.4470 0
M  V30 73 C -5.4590 7.5020 -2.0600 0
M  V30 74 H -10.4660 7.0280 -6.9380 0
M  V30 75 N -12.0160 8.1270 -6.6160 0
M  V30 76 O -1.8940 12.5350 -8.8040 0
M  V30 77 H -1.1780 11.6660 -6.6640 0
M  V30 78 C -0.7380 9.9180 -5.7770 0
M  V30 79 C -2.9310 11.0830 -5.9020 0
M  V30 80 H -2.2700 11.3600 -12.4350 0
M  V30 81 N -2.1970 12.9610 -11.2690 0
M  V30 82 C -8.1350 6.2850 -17.3090 0
M  V30 83 H -9.1710 7.1820 -15.7530 0
M  V30 84 N -8.3290 8.7180 -16.8060 0
M  V30 85 H -3.2300 9.1790 -5.2180 0
M  V30 86 C -4.6670 12.5860 -5.1680 0
M  V30 87 O -6.4740 11.7040 -3.7380 0
M  V30 88 H -5.9440 6.8350 -2.5750 0
M  V30 89 H -6.1010 8.1420 -1.7180 0
M  V30 90 S -4.6500 6.7270 -0.7330 0
M  V30 91 H -12.3140 8.7550 -6.1110 0
M  V30 92 C -12.8420 7.5530 -7.5570 0
M  V30 93 H -1.1920 9.0750 -5.6120 0
M  V30 94 H 0.0670 9.7240 -6.2820 0
M  V30 95 C -0.3520 10.5290 -4.4510 0
M  V30 96 C -3.5250 12.2890 -5.8420 0
M  V30 97 H -2.1040 13.2550 -10.4670 0
M  V30 98 N -2.3510 13.8180 -12.3790 0
M  V30 99 C -9.3260 6.2750 -18.2910 0
M  V30 100 H -7.3160 6.4660 -17.8010 0
M  V30 101 H -8.0490 5.4100 -16.9000 0
M  V30 102 H -7.5850 9.0870 -17.0210 0
M  V30 103 C -9.4670 9.3690 -16.9930 0
M  V30 104 C -5.3840 13.9000 -5.2210 0
M  V30 105 O -3.6520 5.9010 -1.5430 0
M  V30 106 O -5.5510 5.8190 -0.0420 0
M  V30 107 O -3.7360 7.4140 0.0460 0
M  V30 108 C -14.2350 8.0920 -7.6120 0
M  V30 109 O -12.4600 6.6700 -8.3150 0
M  V30 110 H -1.1370 10.9210 -4.0390 0
M  V30 111 H 0.2900 11.2420 -4.6050 0
M  V30 112 S 0.3650 9.3190 -3.3290 0
M  V30 113 O -2.9840 13.3770 -6.5300 0
M  V30 114 H -2.3380 13.5150 -13.1840 0
M  V30 115 C -2.5230 15.1620 -12.1110 0
M  V30 116 C -9.4840 5.0690 -19.1370 0
M  V30 117 H -10.1380 6.3940 -17.7750 0
M  V30 118 H -9.2390 7.0450 -18.8750 0
M  V30 119 O -10.5790 8.9130 -16.7560 0
M  V30 120 C -9.2470 10.7700 -17.5490 0
M  V30 121 H -4.9600 14.5650 -5.7150 0
M  V30 122 N -6.5000 14.2490 -4.6740 0
M  V30 123 C -15.2240 7.0600 -6.9660 0
M  V30 124 H -14.2680 8.9250 -7.0950 0
M  V30 125 N -14.6350 8.3790 -8.9810 0
M  V30 126 O 0.6370 9.9950 -2.0880 0
M  V30 127 O -0.6280 8.2760 -3.1080 0
M  V30 128 O 1.5820 8.7890 -3.9100 0
M  V30 129 C -2.7030 15.9630 -13.3400 0
M  V30 130 O -2.3950 15.6910 -10.9950 0
M  V30 131 O -10.4250 4.3000 -19.0170 0
M  V30 132 N -8.4780 4.9150 -19.9830 0
M  V30 133 H -5.1370 11.4100 -16.4670 0
M  V30 134 H -4.4190 9.5570 -15.5670 0
M  V30 135 H -8.3080 10.9220 -17.6780 0
M  V30 136 H -9.5950 11.4200 -16.9350 0
M  V30 137 H -9.7010 10.8550 -18.3930 0
M  V30 138 H -6.8970 13.7020 -4.1390 0
M  V30 139 N -7.0410 15.4080 -4.9130 0
M  V30 140 C -16.6130 7.5890 -7.0480 0
M  V30 141 H -15.1670 6.2120 -7.4290 0
M  V30 142 H -14.9840 6.9140 -6.0340 0
M  V30 143 H -14.5390 7.7490 -9.5560 0
M  V30 144 C -15.1410 9.5440 -9.4300 0
M  V30 145 C -1.2440 16.6140 -13.6840 0
M  V30 146 H -3.0330 15.4140 -14.0830 0
M  V30 147 N -3.6350 17.0350 -13.0170 0
M  V30 148 H -8.4560 4.2300 -20.5030 0
M  V30 149 H -7.8470 5.4970 -20.0120 0
M  V30 150 N -4.5580 11.9350 -16.1080 0
M  V30 151 C -3.7090 9.9230 -15.0320 0
M  V30 152 H -6.6590 15.9870 -5.4210 0
M  V30 153 C -8.1480 15.6550 -4.3590 0
M  V30 154 C -17.6020 6.6550 -6.3520 0
M  V30 155 H -16.8650 7.6890 -7.9790 0
M  V30 156 H -16.6500 8.4660 -6.6320 0
M  V30 157 O -15.3030 10.4930 -8.6570 0
M  V30 158 C -15.3960 9.6050 -10.8830 0
M  V30 159 C -1.3100 17.5530 -14.9200 0
M  V30 160 H -0.9300 17.1180 -12.9130 0
M  V30 161 H -0.6060 15.9040 -13.8520 0
M  V30 162 H -3.5170 17.4750 -12.2860 0
M  V30 163 C -4.6720 17.3740 -13.8120 0
M  V30 164 C -4.5360 13.3920 -16.4620 0
M  V30 165 C -3.6610 11.4420 -15.2300 0
M  V30 166 H -3.8670 9.7270 -14.1100 0
M  V30 167 H -2.8730 9.5420 -15.3080 0
M  V30 168 C -8.7720 17.0200 -4.6740 0
M  V30 169 O -8.8470 14.8700 -3.6700 0
M  V30 170 O -17.6900 5.5000 -6.7190 0
M  V30 171 N -17.9140 6.9990 -5.1230 0
M  V30 172 H -15.1970 8.7560 -11.2790 0
M  V30 173 H -14.8400 10.2830 -11.2740 0
M  V30 174 H -16.3190 9.8230 -11.0330 0
M  V30 175 C 0.0700 18.0350 -15.1520 0
M  V30 176 H -1.6370 17.0710 -15.6920 0
M  V30 177 H -1.9020 18.3010 -14.7440 0
M  V30 178 O -4.8740 16.8190 -14.8830 0
M  V30 179 C -5.5990 18.4310 -13.3550 0
M  V30 180 C -3.4980 13.6280 -17.5590 0
M  V30 181 H -4.3050 13.9220 -15.6690 0
M  V30 182 C -5.9510 13.7000 -16.8860 0
M  V30 183 O -2.8170 12.1710 -14.6580 0
M  V30 184 C -8.7810 17.8920 -3.3780 0
M  V30 185 H -8.2170 17.4700 -5.3490 0
M  V30 186 N -10.1040 16.8860 -5.1910 0
M  V30 187 H -18.1910 6.4030 -4.5680 0
M  V30 188 H -17.8470 7.8190 -4.8750 0
M  V30 189 O 0.4480 18.8970 -14.4030 0
M  V30 190 N 0.7470 17.2760 -16.0060 0
M  V30 191 H -5.3200 18.7490 -12.4910 0
M  V30 192 H -6.4870 18.0690 -13.2870 0
M  V30 193 H -5.5950 19.1550 -13.9800 0
M  V30 194 C -3.2960 15.0950 -17.9200 0
M  V30 195 H -2.6480 13.2600 -17.2680 0
M  V30 196 H -3.7700 13.1470 -18.3550 0
M  V30 197 N -6.3510 14.9670 -16.5420 0
M  V30 198 O -6.7070 12.9510 -17.4580 0
M  V30 199 C -9.1460 19.3540 -3.4900 0
M  V30 200 H -9.4030 17.4810 -2.7530 0
M  V30 201 H -7.9000 17.8370 -2.9770 0
M  V30 202 H -10.6340 16.3410 -4.7930 0
M  V30 203 C -10.5740 17.5480 -6.2470 0
M  V30 204 H 1.5980 17.3690 -16.0860 0
M  V30 205 H 0.3330 16.6920 -16.4860 0
M  V30 206 C -4.0570 15.5260 -19.1410 0
M  V30 207 H -3.5720 15.6460 -17.1690 0
M  V30 208 H -2.3500 15.2570 -18.0680 0
M  V30 209 N -7.6340 15.4030 -16.7930 0
M  V30 210 H -5.7930 15.4970 -16.1620 0
M  V30 211 C -9.0620 20.1750 -2.2320 0
M  V30 212 H -8.5630 19.7560 -4.1510 0
M  V30 213 H -10.0520 19.4110 -3.8280 0
M  V30 214 O -9.8760 18.3430 -6.8760 0
M  V30 215 C -12.0470 17.3430 -6.5760 0
M  V30 216 O -4.8080 14.8130 -19.7830 0
M  V30 217 N -3.7670 16.7730 -19.5560 0
M  V30 218 C -8.0380 16.4650 -16.1560 0
M  V30 219 H -8.1470 14.9930 -17.3480 0
M  V30 220 O -8.0870 20.1550 -1.4830 0
M  V30 221 N -9.7610 21.3550 -2.2100 0
M  V30 222 H -12.7350 13.3800 -4.7200 0
M  V30 223 H -10.8370 12.8700 -3.7150 0
M  V30 224 H -12.3950 16.6240 -6.0480 0
M  V30 225 H -12.1390 17.1310 -7.5090 0
M  V30 226 H -12.5290 18.1500 -6.3830 0
M  V30 227 H -4.1110 17.0730 -20.2850 0
M  V30 228 H -3.2350 17.2660 -19.0960 0
M  V30 229 C -9.4100 16.8760 -16.3580 0
M  V30 230 H -7.4650 16.9440 -15.6010 0
M  V30 231 H -9.5020 22.0030 -1.7090 0
M  V30 232 H -10.4630 21.4490 -2.7030 0
M  V30 233 N -12.9920 12.5810 -4.9210 0
M  V30 234 C -10.8600 11.9350 -3.9170 0
M  V30 235 C -10.3770 16.1830 -17.0470 0
M  V30 236 C -9.8670 18.0250 -15.6170 0
M  V30 237 C -14.3060 12.4630 -5.5580 0
M  V30 238 C -12.1430 11.6010 -4.6140 0
M  V30 239 H -10.1190 11.7130 -4.4930 0
M  V30 240 H -10.7950 11.4250 -3.1080 0
M  V30 241 C -11.6990 16.5580 -17.1820 0
M  V30 242 O -9.9770 15.0030 -17.7490 0
M  V30 243 C -11.1460 18.4100 -15.6840 0
M  V30 244 O -8.8690 18.7030 -14.9250 0
M  V30 245 C -15.4400 12.5660 -4.4790 0
M  V30 246 H -14.3710 11.6080 -6.0270 0
M  V30 247 C -14.5250 13.5970 -6.5240 0
M  V30 248 O -12.4510 10.4570 -4.9020 0
M  V30 249 C -12.0730 17.7070 -16.4410 0
M  V30 250 C -12.6710 15.7930 -17.9540 0
M  V30 251 C -11.5940 19.7290 -14.9730 0
M  V30 252 C -16.7760 12.0990 -5.0110 0
M  V30 253 H -15.1990 12.0300 -3.7090 0
M  V30 254 H -15.5210 13.4890 -4.1870 0
M  V30 255 N -14.9170 13.1200 -7.7220 0
M  V30 256 O -14.2440 14.7570 -6.2320 0
M  V30 257 H -12.9600 17.9900 -16.4530 0
M  V30 258 H -12.1710 15.2990 -18.6400 0
M  V30 259 C -13.7340 16.6760 -18.7030 0
M  V30 260 C -13.4490 14.6900 -17.0470 0
M  V30 261 C -12.0470 19.3850 -13.5720 0
M  V30 262 H -10.8120 20.3150 -14.9030 0
M  V30 263 C -12.6880 20.4830 -15.8110 0
M  V30 264 C -17.8220 12.3040 -3.9320 0
M  V30 265 H -16.7270 11.1610 -5.2540 0
M  V30 266 H -17.0140 12.6060 -5.8060 0
M  V30 267 N -15.1670 14.0640 -8.6810 0
M  V30 268 H -15.0060 12.2790 -7.8700 0
M  V30 269 H -14.3330 17.0830 -18.0580 0
M  V30 270 H -13.2840 17.3900 -19.1850 0
M  V30 271 C -14.5430 15.8450 -19.6840 0
M  V30 272 C -14.5250 14.9930 -16.3810 0
M  V30 273 C -12.8380 13.4530 -16.9870 0
M  V30 274 C -13.3870 19.0670 -13.2650 0
M  V30 275 C -11.1550 19.4620 -12.4780 0
M  V30 276 H -12.3770 20.5870 -16.7220 0
M  V30 277 H -13.4980 19.9530 -15.8270 0
M  V30 278 C -12.9960 21.8580 -15.2270 0
M  V30 279 O -17.9890 11.3810 -3.1380 0
M  V30 280 N -18.1510 13.5510 -3.4900 0
M  V30 281 C -15.4350 13.6900 -9.8490 0
M  V30 282 H -15.1350 14.9010 -8.4910 0
M  V30 283 H -14.8480 15.0280 -19.2570 0
M  V30 284 H -13.9980 15.6040 -20.4500 0
M  V30 285 S -15.9570 16.8320 -20.2130 0
M  V30 286 H -14.8550 15.8630 -16.4150 0
M  V30 287 C -15.2460 13.9820 -15.5570 0
M  V30 288 C -13.5410 12.4270 -16.1480 0
M  V30 289 O -11.7960 12.9870 -17.6730 0
M  V30 290 C -13.8530 18.6670 -11.9770 0
M  V30 291 H -14.0120 19.1300 -13.9480 0
M  V30 292 C -11.5720 19.1080 -11.1600 0
M  V30 293 O -9.8890 19.7850 -12.7290 0
M  V30 294 H -12.2240 22.4360 -15.3110 0
M  V30 295 H -13.2130 21.7740 -14.2820 0
M  V30 296 S -14.3760 22.5510 -16.1040 0
M  V30 297 H -18.4760 13.6540 -2.6930 0
M  V30 298 H -18.0660 14.2320 -4.0030 0
M  V30 299 C -15.6240 14.6180 -11.0030 0
M  V30 300 H -15.5260 12.7770 -10.0020 0
M  V30 301 O -15.4440 18.0350 -20.8450 0
M  V30 302 O -16.7410 16.0600 -21.1390 0
M  V30 303 O -16.7140 17.1790 -19.0130 0
M  V30 304 C -14.6220 12.7810 -15.5040 0
M  V30 305 C -16.5160 14.3570 -14.7780 0
M  V30 306 C -12.8910 11.0780 -16.0810 0
M  V30 307 C -15.3080 18.3690 -11.6690 0
M  V30 308 C -12.8950 18.7690 -10.9350 0
M  V30 309 C -10.6620 19.1030 -10.0370 0
M  V30 310 O -14.0770 22.7610 -17.5120 0
M  V30 311 O -15.5360 21.6320 -16.1040 0
M  V30 312 O -14.8730 23.7820 -15.5270 0
M  V30 313 C -15.4350 15.9780 -10.8080 0
M  V30 314 C -16.0290 14.1460 -12.1710 0
M  V30 315 O -15.3030 11.8530 -14.7150 0
M  V30 316 H -17.0250 13.5310 -14.6250 0
M  V30 317 C -17.4310 15.3260 -15.5720 0
M  V30 318 C -16.1340 14.9110 -13.4070 0
M  V30 319 H -12.1130 10.8580 -16.5410 0
M  V30 320 N -13.5450 10.2160 -15.2900 0
M  V30 321 C -15.6200 16.8250 -11.9690 0
M  V30 322 H -15.4840 18.5540 -10.7240 0
M  V30 323 C -16.3100 19.2000 -12.5530 0
M  V30 324 O -13.2200 18.4560 -9.6310 0
M  V30 325 H -10.9730 18.8910 -9.1870 0
M  V30 326 N -9.3390 19.4050 -10.2240 0
M  V30 327 O -15.1320 16.5320 -9.5950 0
M  V30 328 O -16.2180 12.7710 -12.3530 0
M  V30 329 H -17.4530 15.0600 -16.5060 0
M  V30 330 H -17.0760 16.2270 -15.5220 0
M  V30 331 C -18.9560 15.2850 -14.9430 0
M  V30 332 C -15.8440 16.3370 -13.1450 0
M  V30 333 H -14.2850 10.3900 -14.8830 0
M  V30 334 N -12.8770 9.0100 -15.2180 0
M  V30 335 H -16.1220 20.1470 -12.4630 0
M  V30 336 H -16.2110 18.9550 -13.4860 0
M  V30 337 C -17.7120 18.9080 -12.0890 0
M  V30 338 H -9.0390 19.6720 -10.9880 0
M  V30 339 N -8.5660 19.2720 -9.1830 0
M  V30 340 H -18.9000 15.3130 -13.9740 0
M  V30 341 H -19.3830 14.4530 -15.1930 0
M  V30 342 S -19.9450 16.6350 -15.5040 0
M  V30 343 H -15.8240 16.9190 -13.8730 0
M  V30 344 H -12.1430 8.8540 -15.6380 0
M  V30 345 C -13.4970 8.0810 -14.4030 0
M  V30 346 H -17.7820 18.9960 -11.1290 0
M  V30 347 H -17.9760 18.0100 -12.3450 0
M  V30 348 S -18.7180 20.1080 -12.9050 0
M  V30 349 H -8.8870 19.0330 -8.4250 0
M  V30 350 C -7.2650 19.5180 -9.3250 0
M  V30 351 O -21.1840 16.8710 -14.7700 0
M  V30 352 O -19.2190 17.9170 -15.4740 0
M  V30 353 O -20.3440 16.5220 -16.9120 0
M  V30 354 C -12.7850 6.7420 -14.3290 0
M  V30 355 O -14.4900 8.3220 -13.7640 0
M  V30 356 O -18.8630 19.8520 -14.3360 0
M  V30 357 O -20.0760 20.1490 -12.3510 0
M  V30 358 O -18.2000 21.4730 -12.8080 0
M  V30 359 C -6.3460 19.3230 -8.1040 0
M  V30 360 O -6.7950 19.9030 -10.4190 0
M  V30 361 C -13.7610 5.6700 -14.7930 0
M  V30 362 H -12.0110 6.7550 -14.9320 0
M  V30 363 N -12.3100 6.4800 -12.9360 0
M  V30 364 C -5.5950 20.6630 -7.7300 0
M  V30 365 H -6.8630 18.9970 -7.3410 0
M  V30 366 N -5.3220 18.3480 -8.4860 0
M  V30 367 C -13.2110 4.2690 -14.7030 0
M  V30 368 H -14.5630 5.7250 -14.2490 0
M  V30 369 H -14.0100 5.8480 -15.7090 0
M  V30 370 H -12.8910 6.4790 -12.3000 0
M  V30 371 C -11.0530 6.2600 -12.6360 0
M  V30 372 C -4.2190 20.5030 -7.1150 0
M  V30 373 H -5.5100 21.2000 -8.5310 0
M  V30 374 H -6.1510 21.1570 -7.1060 0
M  V30 375 H -4.8760 18.4240 -9.2180 0
M  V30 376 C -5.1200 17.3530 -7.6620 0
M  V30 377 C -12.1430 4.1100 -15.7440 0
M  V30 378 H -12.8390 4.1170 -13.8170 0
M  V30 379 H -13.9210 3.6270 -14.8490 0
M  V30 380 O -10.1700 6.2390 -13.4600 0
M  V30 381 C -10.7990 5.9880 -11.1650 0
M  V30 382 C -3.8680 20.1390 -5.7150 0
M  V30 383 H -3.7680 19.8480 -7.6690 0
M  V30 384 H -3.7690 21.3460 -7.2780 0
M  V30 385 O -5.7970 17.1380 -6.6770 0
M  V30 386 C -3.9380 16.4400 -8.0370 0
M  V30 387 O -11.2120 3.4380 -15.3540 0
M  V30 388 N -12.2090 4.5970 -17.0020 0
M  V30 389 H -11.6210 6.0660 -10.6780 0
M  V30 390 H -10.1640 6.6260 -10.8270 0
M  V30 391 H -10.4450 5.1010 -11.0590 0
M  V30 392 O -3.0060 19.2520 -5.4000 0
M  V30 393 N -3.7800 21.2270 -4.8760 0
M  V30 394 H -3.4210 16.8550 -8.7330 0
M  V30 395 H -4.2700 15.5950 -8.3470 0
M  V30 396 H -3.3820 16.3040 -7.2660 0
M  V30 397 H -11.5740 4.4360 -17.5570 0
M  V30 398 H -12.8840 5.0720 -17.2420 0
M  V30 399 H -3.2000 21.2420 -4.2410 0
M  V30 400 H -4.3090 21.8960 -4.9900 0
M  V30 END ATOM
M  V30 BEGIN BOND
M  V30 1 1   1   3
M  V30 2 1   1   2
M  V30 3 1   1   4
M  V30 4 1   2   6
M  V30 5 1   2   5
M  V30 6 1   3   7
M  V30 7 1   3   8
M  V30 8 1   4  10
M  V30 9 1   4   9
M  V30 10 1   4  11
M  V30 11 1   6  12
M  V30 12 1   6  13
M  V30 13 1   7  14
M  V30 14 1   7  12
M  V30 15 1   9  16
M  V30 16 1   9  15
M  V30 17 1  11  19
M  V30 18 1  11  17
M  V30 19 1  11  18
M  V30 20 1  12  20
M  V30 21 1  13  21
M  V30 22 1  13  23
M  V30 23 1  13  22
M  V30 24 1  14  25
M  V30 25 1  14  24
M  V30 26 1  15  27
M  V30 27 1  15  26
M  V30 28 1  16  29
M  V30 29 1  16  28
M  V30 30 1  19  30
M  V30 31 1  19  31
M  V30 32 1  19  32
M  V30 33 1  22  35
M  V30 34 1  22  34
M  V30 35 1  22  33
M  V30 36 1  23  37
M  V30 37 1  23  36
M  V30 38 1  25  39
M  V30 39 1  25  38
M  V30 40 1  26  41
M  V30 41 1  26  40
M  V30 42 1  28  42
M  V30 43 1  28  41
M  V30 44 1  32  43
M  V30 45 1  32  44
M  V30 46 1  32  45
M  V30 47 1  35  47
M  V30 48 1  35  46
M  V30 49 1  35  48
M  V30 50 1  36  50
M  V30 51 1  36  49
M  V30 52 1  37  52
M  V30 53 1  37  51
M  V30 54 1  39  54
M  V30 55 1  39  53
M  V30 56 1  40  55
M  V30 57 1  40  56
M  V30 58 1  40  57
M  V30 59 1  41  58
M  V30 60 1  42  60
M  V30 61 1  42  59
M  V30 62 1  48  61
M  V30 63 1  48  63
M  V30 64 1  48  62
M  V30 65 1  50  64
M  V30 66 1  50  65
M  V30 67 1  51  66
M  V30 68 1  51  64
M  V30 69 1  54  67
M  V30 70 1  54  68
M  V30 71 1  55  69
M  V30 72 1  55  70
M  V30 73 1  57  71
M  V30 74 1  57  72
M  V30 75 1  57  73
M  V30 76 1  60  74
M  V30 77 1  60  75
M  V30 78 1  64  76
M  V30 79 1  65  77
M  V30 80 1  65  79
M  V30 81 1  65  78
M  V30 82 1  66  80
M  V30 83 1  66  81
M  V30 84 1  67  82
M  V30 85 1  67  84
M  V30 86 1  67  83
M  V30 87 1  69  79
M  V30 88 1  69  85
M  V30 89 1  70  86
M  V30 90 1  70  87
M  V30 91 1  73  88
M  V30 92 1  73  89
M  V30 93 1  73  90
M  V30 94 1  75  92
M  V30 95 1  75  91
M  V30 96 1  78  94
M  V30 97 1  78  93
M  V30 98 1  78  95
M  V30 99 1  79  96
M  V30 100 1  81  98
M  V30 101 1  81  97
M  V30 102 1  82  99
M  V30 103 1  82 100
M  V30 104 1  82 101
M  V30 105 1  84 102
M  V30 106 1  84 103
M  V30 107 1  86  96
M  V30 108 1  86 104
M  V30 109 1  90 105
M  V30 110 1  90 106
M  V30 111 1  90 107
M  V30 112 1  92 109
M  V30 113 1  92 108
M  V30 114 1  95 111
M  V30 115 1  95 110
M  V30 116 1  95 112
M  V30 117 1  96 113
M  V30 118 1  98 114
M  V30 119 1  98 115
M  V30 120 1  99 116
M  V30 121 1  99 118
M  V30 122 1  99 117
M  V30 123 1 103 120
M  V30 124 1 103 119
M  V30 125 1 104 121
M  V30 126 1 104 122
M  V30 127 1 108 125
M  V30 128 1 108 124
M  V30 129 1 108 123
M  V30 130 1 112 128
M  V30 131 1 112 127
M  V30 132 1 112 126
M  V30 133 1 115 129
M  V30 134 1 115 130
M  V30 135 1 116 132
M  V30 136 1 116 131
M  V30 137 1 120 137
M  V30 138 1 120 135
M  V30 139 1 120 136
M  V30 140 1 122 139
M  V30 141 1 122 138
M  V30 142 1 123 141
M  V30 143 1 123 140
M  V30 144 1 123 142
M  V30 145 1 125 143
M  V30 146 1 125 144
M  V30 147 1 129 146
M  V30 148 1 129 145
M  V30 149 1 129 147
M  V30 150 1 132 148
M  V30 151 1 132 149
M  V30 152 1 133 150
M  V30 153 1 134 151
M  V30 154 1 139 152
M  V30 155 1 139 153
M  V30 156 1 140 155
M  V30 157 1 140 156
M  V30 158 1 140 154
M  V30 159 1 144 158
M  V30 160 1 144 157
M  V30 161 1 145 159
M  V30 162 1 145 161
M  V30 163 1 145 160
M  V30 164 1 147 163
M  V30 165 1 147 162
M  V30 166 1 150 164
M  V30 167 1 150 165
M  V30 168 1 151 167
M  V30 169 1 151 165
M  V30 170 1 151 166
M  V30 171 1 153 168
M  V30 172 1 153 169
M  V30 173 1 154 170
M  V30 174 1 154 171
M  V30 175 1 158 172
M  V30 176 1 158 173
M  V30 177 1 158 174
M  V30 178 1 159 176
M  V30 179 1 159 175
M  V30 180 1 159 177
M  V30 181 1 163 178
M  V30 182 1 163 179
M  V30 183 1 164 180
M  V30 184 1 164 182
M  V30 185 1 164 181
M  V30 186 1 165 183
M  V30 187 1 168 185
M  V30 188 1 168 186
M  V30 189 1 168 184
M  V30 190 1 171 188
M  V30 191 1 171 187
M  V30 192 1 175 190
M  V30 193 1 175 189
M  V30 194 1 179 193
M  V30 195 1 179 192
M  V30 196 1 179 191
M  V30 197 1 180 196
M  V30 198 1 180 194
M  V30 199 1 180 195
M  V30 200 1 182 198
M  V30 201 1 182 197
M  V30 202 1 184 199
M  V30 203 1 184 201
M  V30 204 1 184 200
M  V30 205 1 186 203
M  V30 206 1 186 202
M  V30 207 1 190 205
M  V30 208 1 190 204
M  V30 209 1 194 206
M  V30 210 1 194 208
M  V30 211 1 194 207
M  V30 212 1 197 209
M  V30 213 1 197 210
M  V30 214 1 199 212
M  V30 215 1 199 213
M  V30 216 1 199 211
M  V30 217 1 203 214
M  V30 218 1 203 215
M  V30 219 1 206 216
M  V30 220 1 206 217
M  V30 221 1 209 219
M  V30 222 1 209 218
M  V30 223 1 211 221
M  V30 224 1 211 220
M  V30 225 1 215 225
M  V30 226 1 215 226
M  V30 227 1 215 224
M  V30 228 1 217 227
M  V30 229 1 217 228
M  V30 230 1 218 229
M  V30 231 1 218 230
M  V30 232 1 221 232
M  V30 233 1 221 231
M  V30 234 1 222 233
M  V30 235 1 223 234
M  V30 236 1 229 235
M  V30 237 1 229 236
M  V30 238 1 233 237
M  V30 239 1 233 238
M  V30 240 1 234 238
M  V30 241 1 234 239
M  V30 242 1 234 240
M  V30 243 1 235 242
M  V30 244 1 235 241
M  V30 245 1 236 243
M  V30 246 1 236 244
M  V30 247 1 237 247
M  V30 248 1 237 246
M  V30 249 1 237 245
M  V30 250 1 238 248
M  V30 251 1 241 250
M  V30 252 1 241 249
M  V30 253 1 243 249
M  V30 254 1 243 251
M  V30 255 1 245 252
M  V30 256 1 245 254
M  V30 257 1 245 253
M  V30 258 1 247 255
M  V30 259 1 247 256
M  V30 260 1 249 257
M  V30 261 1 250 259
M  V30 262 1 250 258
M  V30 263 1 250 260
M  V30 264 1 251 263
M  V30 265 1 251 262
M  V30 266 1 251 261
M  V30 267 1 252 266
M  V30 268 1 252 265
M  V30 269 1 252 264
M  V30 270 1 255 267
M  V30 271 1 255 268
M  V30 272 1 259 271
M  V30 273 1 259 270
M  V30 274 1 259 269
M  V30 275 1 260 273
M  V30 276 1 260 272
M  V30 277 1 261 274
M  V30 278 1 261 275
M  V30 279 1 263 276
M  V30 280 1 263 277
M  V30 281 1 263 278
M  V30 282 1 264 280
M  V30 283 1 264 279
M  V30 284 1 267 281
M  V30 285 1 267 282
M  V30 286 1 271 284
M  V30 287 1 271 285
M  V30 288 1 271 283
M  V30 289 1 272 286
M  V30 290 1 272 287
M  V30 291 1 273 289
M  V30 292 1 273 288
M  V30 293 1 274 291
M  V30 294 1 274 290
M  V30 295 1 275 293
M  V30 296 1 275 292
M  V30 297 1 278 296
M  V30 298 1 278 294
M  V30 299 1 278 295
M  V30 300 1 280 298
M  V30 301 1 280 297
M  V30 302 1 281 299
M  V30 303 1 281 300
M  V30 304 1 285 302
M  V30 305 1 285 301
M  V30 306 1 285 303
M  V30 307 1 287 304
M  V30 308 1 287 305
M  V30 309 1 288 306
M  V30 310 1 288 304
M  V30 311 1 290 307
M  V30 312 1 290 308
M  V30 313 1 292 308
M  V30 314 1 292 309
M  V30 315 1 296 310
M  V30 316 1 296 311
M  V30 317 1 296 312
M  V30 318 1 299 314
M  V30 319 1 299 313
M  V30 320 1 304 315
M  V30 321 1 305 317
M  V30 322 1 305 316
M  V30 323 1 305 318
M  V30 324 1 306 319
M  V30 325 1 306 320
M  V30 326 1 307 323
M  V30 327 1 307 321
M  V30 328 1 307 322
M  V30 329 1 308 324
M  V30 330 1 309 326
M  V30 331 1 309 325
M  V30 332 1 313 321
M  V30 333 1 313 327
M  V30 334 1 314 318
M  V30 335 1 314 328
M  V30 336 1 317 329
M  V30 337 1 317 330
M  V30 338 1 317 331
M  V30 339 1 318 332
M  V30 340 1 320 334
M  V30 341 1 320 333
M  V30 342 1 321 332
M  V30 343 1 323 336
M  V30 344 1 323 335
M  V30 345 1 323 337
M  V30 346 1 326 338
M  V30 347 1 326 339
M  V30 348 1 331 342
M  V30 349 1 331 341
M  V30 350 1 331 340
M  V30 351 1 332 343
M  V30 352 1 334 344
M  V30 353 1 334 345
M  V30 354 1 337 348
M  V30 355 1 337 347
M  V30 356 1 337 346
M  V30 357 1 339 350
M  V30 358 1 339 349
M  V30 359 1 342 353
M  V30 360 1 342 352
M  V30 361 1 342 351
M  V30 362 1 345 354
M  V30 363 1 345 355
M  V30 364 1 348 356
M  V30 365 1 348 358
M  V30 366 1 348 357
M  V30 367 1 350 360
M  V30 368 1 350 359
M  V30 369 1 354 362
M  V30 370 1 354 361
M  V30 371 1 354 363
M  V30 372 1 359 366
M  V30 373 1 359 364
M  V30 374 1 359 365
M  V30 375 1 361 369
M  V30 376 1 361 367
M  V30 377 1 361 368
M  V30 378 1 363 371
M  V30 379 1 363 370
M  V30 380 1 364 373
M  V30 381 1 364 372
M  V30 382 1 364 374
M  V30 383 1 366 375
M  V30 384 1 366 376
M  V30 385 1 367 377
M  V30 386 1 367 379
M  V30 387 1 367 378
M  V30 388 1 371 380
M  V30 389 1 371 381
M  V30 390 1 372 383
M  V30 391 1 372 384
M  V30 392 1 372 382
M  V30 393 1 376 386
M  V30 394 1 376 385
M  V30 395 1 377 388
M  V30 396 1 377 387
M  V30 397 1 381 391
M  V30 398 1 381 390
M  V30 399 1 381 389
M  V30 400 1 382 392
M  V30 401 1 382 393
M  V30 402 1 386 394
M  V30 403 1 386 395
M  V30 404 1 386 396
M  V30 405 1 388 397
M  V30 406 1 388 398
M  V30 407 1 393 400
M  V30 408 1 393 399
M  V30 409 1 M   END
M  V30 END BOND
M  V30 END CTAB

