     RDKit          3D

  0  0  0  0  0  0  0  0  0  0999 V3000
M  V30 BEGIN CTAB
M  V30 COUNTS 252 276 0 0 0
M  V30 BEGIN ATOM
M  V30 1 S 23.1490 1.5430 19.9380 0
M  V30 2 O 24.3650 0.7960 19.8640 0
M  V30 3 O 23.1000 2.5720 20.9570 0
M  V30 4 N 21.8310 0.5490 20.0230 0
M  V30 5 N 22.7210 2.2180 18.4840 0
M  V30 6 S 14.1450 1.2290 22.7210 0
M  V30 7 O 12.9270 0.4770 22.8060 0
M  V30 8 O 14.1510 2.3280 21.7890 0
M  V30 9 N 14.6140 1.7880 24.2120 0
M  V30 10 N 15.4680 0.2440 22.5280 0
M  V30 11 S 16.0150 8.1790 17.8460 0
M  V30 12 O 15.0550 8.9170 17.0830 0
M  V30 13 O 15.4930 7.0800 18.6490 0
M  V30 14 N 16.9250 9.1940 18.7690 0
M  V30 15 N 17.2710 7.6710 16.9050 0
M  V30 16 S 21.0170 7.8100 25.4280 0
M  V30 17 O 21.9810 8.4700 26.2460 0
M  V30 18 O 21.5490 6.8010 24.5360 0
M  V30 19 N 19.7730 7.2030 26.3190 0
M  V30 20 N 20.0790 8.9170 24.6340 0
M  V30 21 O 19.2580 -0.6860 19.6950 0
M  V30 22 C 19.6950 0.2590 18.7860 0
M  V30 23 O 21.0790 3.3400 16.2860 0
M  V30 24 C 20.6590 2.2990 17.0980 0
M  V30 25 O 17.8770 4.9180 16.7830 0
M  V30 26 C 17.0770 3.9700 16.9560 0
M  V30 27 O 16.6210 0.3050 19.8790 0
M  V30 28 C 16.2000 1.0030 18.9320 0
M  V30 29 O 16.2640 2.7610 26.4540 0
M  V30 30 C 16.6800 1.8080 25.5300 0
M  V30 31 O 18.1160 -0.9210 22.6950 0
M  V30 32 C 17.6480 -0.0610 23.6590 0
M  V30 33 O 19.3480 4.4300 26.2990 0
M  V30 34 C 20.2010 3.5580 25.9950 0
M  V30 35 O 20.6490 0.4130 22.5390 0
M  V30 36 C 21.0780 1.0200 23.5500 0
M  V30 37 O 19.0830 10.4090 20.2650 0
M  V30 38 C 19.3490 9.5570 19.2320 0
M  V30 39 O 20.0040 6.6500 16.2210 0
M  V30 40 C 19.7710 7.6270 17.1750 0
M  V30 41 O 20.9700 9.1090 21.9510 0
M  V30 42 C 21.9150 8.5280 21.4070 0
M  V30 43 O 22.4110 4.9760 18.2680 0
M  V30 44 C 22.8280 5.8680 19.0260 0
M  V30 45 O 17.0700 6.0170 26.8520 0
M  V30 46 C 17.2760 7.0800 26.0210 0
M  V30 47 O 17.9010 10.2200 23.3160 0
M  V30 48 C 17.6490 9.2230 24.2640 0
M  V30 49 O 14.8010 4.5170 24.6020 0
M  V30 50 C 14.3360 5.4560 23.9640 0
M  V30 51 O 16.1060 9.0920 21.4520 0
M  V30 52 C 15.2210 8.3970 21.9020 0
M  V30 53 C 20.9280 0.8430 18.9690 0
M  V30 54 C 21.4070 1.8020 18.1520 0
M  V30 55 N 15.9350 4.0580 17.6610 0
M  V30 56 C 15.2570 2.7850 17.7600 0
M  V30 57 N 15.4940 2.1310 19.0540 0
M  V30 58 N 17.1990 2.7350 16.4510 0
M  V30 59 C 16.0920 1.8570 16.8000 0
M  V30 60 C 18.4380 2.2760 15.8380 0
M  V30 61 N 16.4590 0.7410 17.6360 0
M  V30 62 C 17.6670 -0.0410 17.3210 0
M  V30 63 C 16.3970 0.4770 23.5540 0
M  V30 64 C 15.9290 1.3750 24.4670 0
M  V30 65 N 21.3300 3.7960 25.3140 0
M  V30 66 C 22.0430 2.5640 24.9450 0
M  V30 67 N 21.7630 2.1250 23.6060 0
M  V30 68 N 20.1290 2.2700 26.3080 0
M  V30 69 C 21.2460 1.4940 25.7960 0
M  V30 70 C 18.9040 1.6800 26.8710 0
M  V30 71 N 20.8770 0.5060 24.8100 0
M  V30 72 C 19.7720 -0.4210 25.0690 0
M  V30 73 C 18.5150 8.0430 17.4880 0
M  V30 74 C 18.3000 8.9410 18.5420 0
M  V30 75 N 22.4310 7.3480 21.7500 0
M  V30 76 C 23.5710 6.9670 20.9310 0
M  V30 77 N 23.3650 5.6880 20.2350 0
M  V30 78 N 22.6040 9.0160 20.3190 0
M  V30 79 C 23.5050 8.0340 19.7660 0
M  V30 80 C 21.8390 9.9320 19.4120 0
M  V30 81 N 22.8730 7.2170 18.7110 0
M  V30 82 C 22.2950 7.7550 17.5290 0
M  V30 83 C 18.5070 7.6120 25.7230 0
M  V30 84 C 18.7040 8.6120 24.8570 0
M  V30 85 N 13.8110 5.3660 22.7270 0
M  V30 86 C 13.5590 6.6940 22.1610 0
M  V30 87 N 14.2000 6.7230 24.4350 0
M  V30 88 C 14.7720 7.1560 25.6820 0
M  V30 89 C 13.5820 7.6390 23.4560 0
M  V30 90 N 14.7370 7.2320 21.4220 0
M  V30 91 N 14.4630 8.7230 23.0160 0
M  V30 92 C 24.8140 6.8360 21.7890 0
M  V30 93 C 26.1110 6.7990 21.2660 0
M  V30 94 C 24.7180 6.5810 23.1750 0
M  V30 95 C 10.0650 6.0020 20.7580 0
M  V30 96 C 9.9980 6.8070 19.7400 0
M  V30 97 C 11.2130 5.9470 21.5760 0
M  V30 98 C 25.3170 3.2520 26.7770 0
M  V30 99 C 23.9920 3.2410 26.4150 0
M  V30 100 C 26.2630 2.8020 25.8260 0
M  V30 101 C 28.4560 10.5480 17.8890 0
M  V30 102 C 27.1540 9.8450 18.3730 0
M  V30 103 C 25.8590 2.3340 24.6450 0
M  V30 104 C 27.7560 2.7930 26.2070 0
M  V30 105 C 8.2020 9.3130 24.9040 0
M  V30 106 C 9.6170 8.8910 24.5740 0
M  V30 107 C 13.4540 0.3340 11.7490 0
M  V30 108 C 14.1190 0.7210 13.1530 0
M  V30 109 C 23.5120 2.7150 25.2000 0
M  V30 110 C 24.5060 2.2560 24.3390 0
M  V30 111 C 20.6510 9.2340 18.7650 0
M  V30 112 C 20.8210 8.2580 17.7770 0
M  V30 113 C 27.2020 6.5540 22.1380 0
M  V30 114 C 12.3240 6.7200 21.2890 0
M  V30 115 C 16.3890 8.8510 24.6450 0
M  V30 116 C 26.4810 10.3940 19.4230 0
M  V30 117 C 26.6700 8.6880 17.7540 0
M  V30 118 C 18.3880 0.2350 24.7990 0
M  V30 119 C 17.9670 1.1800 25.7190 0
M  V30 120 C 12.2220 8.1150 23.8910 0
M  V30 121 C 11.7080 9.2600 23.4150 0
M  V30 122 C 11.4680 7.3620 24.7820 0
M  V30 123 C 16.2040 7.7460 25.5130 0
M  V30 124 C 19.4040 1.6800 16.8360 0
M  V30 125 C 18.9620 0.6390 17.6760 0
M  V30 126 C 13.7460 2.9410 17.5670 0
M  V30 127 C 13.1600 4.1450 17.3980 0
M  V30 128 C 12.9890 1.7960 17.4490 0
M  V30 129 C 24.7890 8.6850 19.2580 0
M  V30 130 C 25.4640 8.1560 18.2190 0
M  V30 131 C 25.2600 9.8180 19.8490 0
M  V30 132 C 22.9660 -0.1830 26.6340 0
M  V30 133 C 23.7910 -0.6950 27.6410 0
M  V30 134 C 22.0540 0.8400 26.9360 0
M  V30 135 C 15.3640 1.4160 15.4990 0
M  V30 136 C 12.2450 7.5600 20.2010 0
M  V30 137 C 23.7010 -0.2270 28.9090 0
M  V30 138 C 22.0430 1.3600 28.2040 0
M  V30 139 C 11.0820 7.6270 19.4340 0
M  V30 140 C 8.7120 6.8920 18.8740 0
M  V30 141 C 10.2000 7.7550 25.1380 0
M  V30 142 C 22.8580 0.8340 29.1960 0
M  V30 143 C 25.8140 6.2870 23.9640 0
M  V30 144 C 11.0040 3.1130 17.1790 0
M  V30 145 C 11.7170 4.2490 17.2160 0
M  V30 146 C 11.5960 1.9070 17.2220 0
M  V30 147 C 9.4630 3.2410 16.9820 0
M  V30 148 C 10.3730 9.6590 23.6960 0
M  V30 149 C 27.1020 6.3020 23.4150 0
M  V30 150 C 15.0200 0.1250 15.3000 0
M  V30 151 C 14.4030 -0.2410 14.1060 0
M  V30 152 C 24.7000 -0.7530 29.9910 0
M  V30 153 C 14.4330 2.0460 13.3650 0
M  V30 154 C 15.0940 2.3570 14.5670 0
M  V30 155 C 28.2800 5.9380 24.3090 0
M  V30 156 H 18.4710 -0.5460 19.8770 0
M  V30 157 H 21.4810 3.8950 16.7380 0
M  V30 158 H 15.8280 3.3430 26.0700 0
M  V30 159 H 18.8810 -0.7120 22.4890 0
M  V30 160 H 19.5470 10.2110 20.9100 0
M  V30 161 H 19.4330 6.0660 16.2840 0
M  V30 162 H 17.6860 5.4820 26.7660 0
M  V30 163 H 17.4520 10.0770 22.6460 0
M  V30 164 H 21.7100 -0.0580 20.6190 0
M  V30 165 H 23.2160 2.7350 18.0090 0
M  V30 166 H 15.6420 4.7840 18.0150 0
M  V30 167 H 15.2120 2.4390 19.8060 0
M  V30 168 H 15.5700 -0.3260 21.8910 0
M  V30 169 H 14.1280 2.2580 24.7460 0
M  V30 170 H 21.6080 4.5870 25.1140 0
M  V30 171 H 22.0210 2.5550 22.9070 0
M  V30 172 H 17.1870 7.2400 16.1660 0
M  V30 173 H 16.6110 9.7870 19.3070 0
M  V30 174 H 22.1200 6.8620 22.3890 0
M  V30 175 H 23.5640 4.9210 20.5650 0
M  V30 176 H 19.8570 6.7200 27.0260 0
M  V30 177 H 20.3750 9.5740 24.1630 0
M  V30 178 H 13.6460 4.6240 22.3220 0
M  V30 179 H 15.0810 6.8310 20.7430 0
M  V30 180 H 9.3410 5.4500 20.9530 0
M  V30 181 H 25.5830 3.5490 27.6170 0
M  V30 182 H 28.6320 11.3120 18.4440 0
M  V30 183 H 28.3460 10.8330 16.9780 0
M  V30 184 H 29.1920 9.9350 17.9440 0
M  V30 185 H 7.9820 10.1060 24.4110 0
M  V30 186 H 8.1340 9.4930 25.8450 0
M  V30 187 H 7.5940 8.6090 24.6690 0
M  V30 188 H 13.2270 -0.5990 11.7490 0
M  V30 189 H 14.0750 0.5120 11.0420 0
M  V30 190 H 12.6590 0.8550 11.6190 0
M  V30 191 H 26.2560 6.9290 20.3550 0
M  V30 192 H 22.4300 10.2630 18.7180 0
M  V30 193 H 21.5230 10.6930 19.9220 0
M  V30 194 H 18.8660 3.0230 15.3920 0
M  V30 195 H 18.2290 1.6100 15.1650 0
M  V30 196 H 14.6070 9.7390 24.6940 0
M  V30 197 H 15.4360 10.5100 23.6160 0
M  V30 198 H 22.2870 7.0720 16.8390 0
M  V30 199 H 22.8360 8.4930 17.2140 0
M  V30 200 H 23.3720 3.6040 27.0090 0
M  V30 201 H 23.0200 -0.5230 25.7680 0
M  V30 202 H 17.6720 -0.2350 16.3710 0
M  V30 203 H 17.6210 -0.8870 17.7940 0
M  V30 204 H 14.8110 6.4000 26.2910 0
M  V30 205 H 14.1960 7.8270 26.0790 0
M  V30 206 H 24.4080 -1.3600 27.4370 0
M  V30 207 H 18.4390 2.3430 27.4050 0
M  V30 208 H 19.1370 0.9360 27.4480 0
M  V30 209 H 25.1140 7.4090 17.7920 0
M  V30 210 H 11.8270 6.5830 25.1420 0
M  V30 211 H 22.8410 1.1950 30.0540 0
M  V30 212 H 23.8790 6.6130 23.5760 0
M  V30 213 H 24.2540 1.8830 23.5240 0
M  V30 214 H 19.8100 -0.7150 25.9930 0
M  V30 215 H 19.8720 -1.2000 24.5010 0
M  V30 216 H 12.9750 8.0890 19.9760 0
M  V30 217 H 26.4890 2.0550 24.0190 0
M  V30 218 H 12.2410 9.8100 22.8860 0
M  V30 219 H 28.0560 6.5810 21.7710 0
M  V30 220 H 13.6830 4.9150 17.3980 0
M  V30 221 H 13.3890 0.9590 17.5200 0
M  V30 222 H 26.8200 11.1440 19.8560 0
M  V30 223 H 15.1950 -0.5120 15.9540 0
M  V30 224 H 11.3020 5.0780 17.1280 0
M  V30 225 H 28.2740 2.4760 25.4640 0
M  V30 226 H 27.8930 2.2150 26.9590 0
M  V30 227 H 28.0340 3.6830 26.4340 0
M  V30 228 H 9.7250 7.2550 25.7640 0
M  V30 229 H 9.0730 2.3660 16.9310 0
M  V30 230 H 9.2820 3.7200 16.1700 0
M  V30 231 H 9.0840 3.7180 17.7260 0
M  V30 232 H 11.0310 8.2170 18.7180 0
M  V30 233 H 11.0860 1.1390 17.1000 0
M  V30 234 H 24.7790 10.2140 20.5370 0
M  V30 235 H 24.5270 -0.3170 30.8270 0
M  V30 236 H 25.6000 -0.5610 29.7130 0
M  V30 237 H 24.5900 -1.7000 30.0940 0
M  V30 238 H 14.2190 2.7030 12.7410 0
M  V30 239 H 27.1360 8.2870 17.0550 0
M  V30 240 H 25.6950 6.0780 24.8610 0
M  V30 241 H 15.3520 3.2380 14.7280 0
M  V30 242 H 27.9710 5.8100 25.2090 0
M  V30 243 H 28.9260 6.6500 24.2910 0
M  V30 244 H 28.6840 5.1300 23.9910 0
M  V30 245 H 10.0120 10.4170 23.2990 0
M  V30 246 H 8.0560 6.2750 19.2130 0
M  V30 247 H 8.9220 6.6680 17.9660 0
M  V30 248 H 8.3600 7.7840 18.9110 0
M  V30 249 H 14.1830 -1.1340 13.9500 0
M  V30 250 H 11.2240 5.3830 22.3160 0
M  V30 251 H 21.4810 2.0720 28.4010 0
M  V30 252 C 15.1090 9.6880 23.8670 0
M  V30 END ATOM
M  V30 BEGIN BOND
M  V30 1 1   1   5
M  V30 2 1   1   2
M  V30 3 1   1   4
M  V30 4 1   1   3
M  V30 5 1   4  53
M  V30 6 1   4 164
M  V30 7 1   5 165
M  V30 8 1   5  54
M  V30 9 1   6   8
M  V30 10 1   6  10
M  V30 11 1   6   7
M  V30 12 1   6   9
M  V30 13 1   9  64
M  V30 14 1   9 169
M  V30 15 1  10 168
M  V30 16 1  10  63
M  V30 17 1  11  15
M  V30 18 1  11  12
M  V30 19 1  11  13
M  V30 20 1  11  14
M  V30 21 1  14  74
M  V30 22 1  14 173
M  V30 23 1  15 172
M  V30 24 1  15  73
M  V30 25 1  16  18
M  V30 26 1  16  20
M  V30 27 1  16  17
M  V30 28 1  16  19
M  V30 29 1  19  83
M  V30 30 1  19 176
M  V30 31 1  20 177
M  V30 32 1  20  84
M  V30 33 1  21  22
M  V30 34 1  21 156
M  V30 35 1  22 125
M  V30 36 1  22  53
M  V30 37 1  23 157
M  V30 38 1  23  24
M  V30 39 1  24 124
M  V30 40 1  24  54
M  V30 41 1  25  26
M  V30 42 1  26  58
M  V30 43 1  26  55
M  V30 44 1  27  28
M  V30 45 1  28  61
M  V30 46 1  28  57
M  V30 47 1  29  30
M  V30 48 1  29 158
M  V30 49 1  30  64
M  V30 50 1  30 119
M  V30 51 1  31 159
M  V30 52 1  31  32
M  V30 53 1  32  63
M  V30 54 1  32 118
M  V30 55 1  33  34
M  V30 56 1  34  65
M  V30 57 1  34  68
M  V30 58 1  35  36
M  V30 59 1  36  67
M  V30 60 1  36  71
M  V30 61 1  37  38
M  V30 62 1  37 160
M  V30 63 1  38  74
M  V30 64 1  38 111
M  V30 65 1  39 161
M  V30 66 1  39  40
M  V30 67 1  40  73
M  V30 68 1  40 112
M  V30 69 1  41  42
M  V30 70 1  42  78
M  V30 71 1  42  75
M  V30 72 1  43  44
M  V30 73 1  44  81
M  V30 74 1  44  77
M  V30 75 1  45  46
M  V30 76 1  45 162
M  V30 77 1  46 123
M  V30 78 1  46  83
M  V30 79 1  47 163
M  V30 80 1  47  48
M  V30 81 1  48 115
M  V30 82 1  48  84
M  V30 83 1  49  50
M  V30 84 1  50  85
M  V30 85 1  50  87
M  V30 86 1  51  52
M  V30 87 1  52  90
M  V30 88 1  52  91
M  V30 89 1  53  54
M  V30 90 1  55  56
M  V30 91 1  55 166
M  V30 92 1  56  59
M  V30 93 1  56 126
M  V30 94 1  56  57
M  V30 95 1  57 167
M  V30 96 1  58  60
M  V30 97 1  58  59
M  V30 98 1  59 135
M  V30 99 1  59  61
M  V30 100 1  60 195
M  V30 101 1  60 194
M  V30 102 1  60 124
M  V30 103 1  61  62
M  V30 104 1  62 202
M  V30 105 1  62 125
M  V30 106 1  62 203
M  V30 107 1  63  64
M  V30 108 1  65  66
M  V30 109 1  65 170
M  V30 110 1  66  67
M  V30 111 1  66 109
M  V30 112 1  66  69
M  V30 113 1  67 171
M  V30 114 1  68  69
M  V30 115 1  68  70
M  V30 116 1  69  71
M  V30 117 1  69 134
M  V30 118 1  70 119
M  V30 119 1  70 207
M  V30 120 1  70 208
M  V30 121 1  71  72
M  V30 122 1  72 215
M  V30 123 1  72 118
M  V30 124 1  72 214
M  V30 125 1  73  74
M  V30 126 1  75  76
M  V30 127 1  75 174
M  V30 128 1  76  79
M  V30 129 1  76  77
M  V30 130 1  76  92
M  V30 131 1  77 175
M  V30 132 1  78  80
M  V30 133 1  78  79
M  V30 134 1  79  81
M  V30 135 1  79 129
M  V30 136 1  80 192
M  V30 137 1  80 111
M  V30 138 1  80 193
M  V30 139 1  81  82
M  V30 140 1  82 198
M  V30 141 1  82 199
M  V30 142 1  82 112
M  V30 143 1  83  84
M  V30 144 1  85  86
M  V30 145 1  85 178
M  V30 146 1  86 114
M  V30 147 1  86  90
M  V30 148 1  86  89
M  V30 149 1  87  89
M  V30 150 1  87  88
M  V30 151 1  88 123
M  V30 152 1  88 205
M  V30 153 1  88 204
M  V30 154 1  89  91
M  V30 155 1  89 120
M  V30 156 1  90 179
M  V30 157 1  91 252
M  V30 158 1  92  93
M  V30 159 1  92  94
M  V30 160 1  93 191
M  V30 161 1  93 113
M  V30 162 1  94 212
M  V30 163 1  94 143
M  V30 164 1  95  96
M  V30 165 1  95 180
M  V30 166 1  95  97
M  V30 167 1  96 140
M  V30 168 1  96 139
M  V30 169 1  97 114
M  V30 170 1  97 250
M  V30 171 1  98 100
M  V30 172 1  98  99
M  V30 173 1  98 181
M  V30 174 1  99 109
M  V30 175 1  99 200
M  V30 176 1 100 103
M  V30 177 1 100 104
M  V30 178 1 101 183
M  V30 179 1 101 184
M  V30 180 1 101 102
M  V30 181 1 101 182
M  V30 182 1 102 117
M  V30 183 1 102 116
M  V30 184 1 103 217
M  V30 185 1 103 110
M  V30 186 1 104 225
M  V30 187 1 104 227
M  V30 188 1 104 226
M  V30 189 1 105 185
M  V30 190 1 105 106
M  V30 191 1 105 187
M  V30 192 1 105 186
M  V30 193 1 106 148
M  V30 194 1 106 141
M  V30 195 1 107 189
M  V30 196 1 107 190
M  V30 197 1 107 188
M  V30 198 1 107 108
M  V30 199 1 108 153
M  V30 200 1 108 151
M  V30 201 1 109 110
M  V30 202 1 110 213
M  V30 203 1 111 112
M  V30 204 1 113 219
M  V30 205 1 113 149
M  V30 206 1 114 136
M  V30 207 1 115 252
M  V30 208 1 115 123
M  V30 209 1 116 131
M  V30 210 1 116 222
M  V30 211 1 117 239
M  V30 212 1 117 130
M  V30 213 1 118 119
M  V30 214 1 120 121
M  V30 215 1 120 122
M  V30 216 1 121 218
M  V30 217 1 121 148
M  V30 218 1 122 141
M  V30 219 1 122 210
M  V30 220 1 124 125
M  V30 221 1 126 127
M  V30 222 1 126 128
M  V30 223 1 127 145
M  V30 224 1 127 220
M  V30 225 1 128 146
M  V30 226 1 128 221
M  V30 227 1 129 130
M  V30 228 1 129 131
M  V30 229 1 130 209
M  V30 230 1 131 234
M  V30 231 1 132 201
M  V30 232 1 132 134
M  V30 233 1 132 133
M  V30 234 1 133 206
M  V30 235 1 133 137
M  V30 236 1 134 138
M  V30 237 1 135 154
M  V30 238 1 135 150
M  V30 239 1 136 139
M  V30 240 1 136 216
M  V30 241 1 137 142
M  V30 242 1 137 152
M  V30 243 1 138 251
M  V30 244 1 138 142
M  V30 245 1 139 232
M  V30 246 1 140 247
M  V30 247 1 140 248
M  V30 248 1 140 246
M  V30 249 1 141 228
M  V30 250 1 142 211
M  V30 251 1 143 149
M  V30 252 1 143 240
M  V30 253 1 144 147
M  V30 254 1 144 145
M  V30 255 1 144 146
M  V30 256 1 145 224
M  V30 257 1 146 233
M  V30 258 1 147 230
M  V30 259 1 147 229
M  V30 260 1 147 231
M  V30 261 1 148 245
M  V30 262 1 149 155
M  V30 263 1 150 151
M  V30 264 1 150 223
M  V30 265 1 151 249
M  V30 266 1 152 236
M  V30 267 1 152 237
M  V30 268 1 152 235
M  V30 269 1 153 238
M  V30 270 1 153 154
M  V30 271 1 154 241
M  V30 272 1 155 244
M  V30 273 1 155 243
M  V30 274 1 155 242
M  V30 275 1 196 252
M  V30 276 1 197 252
M  V30 277 1 M   END
M  V30 END BOND
M  V30 END CTAB

