     RDKit          3D

  0  0  0  0  0  0  0  0  0  0999 V3000
M  V30 BEGIN CTAB
M  V30 COUNTS 162 192 0 0 0
M  V30 BEGIN ATOM
M  V30 1 C -7.8590 31.5800 6.7930 0
M  V30 2 C -8.7250 32.5450 7.3110 0
M  V30 3 C -8.1040 30.2240 7.0360 0
M  V30 4 C -6.6010 31.9270 6.0030 0
M  V30 5 C -9.1840 29.8390 7.8060 0
M  V30 6 O -9.5050 28.5710 8.1890 0
M  V30 7 C -10.0620 30.8080 8.3190 0
M  V30 8 C -9.8580 32.1270 8.0660 0
M  V30 9 O -11.0690 30.2430 9.0660 0
M  V30 10 C -8.4780 34.0400 7.1840 0
M  V30 11 C -7.7550 34.6050 8.4000 0
M  V30 12 C -6.3650 34.8230 8.4560 0
M  V30 13 C -8.5540 34.8940 9.5300 0
M  V30 14 C -7.9680 35.3790 10.6730 0
M  V30 15 O -8.5910 35.6490 11.8580 0
M  V30 16 C -6.5950 35.6550 10.7070 0
M  V30 17 O -6.2030 36.1680 11.9160 0
M  V30 18 C -5.8030 35.3800 9.6130 0
M  V30 19 C -5.4150 34.4570 7.3070 0
M  V30 20 C -4.8060 33.0650 7.4650 0
M  V30 21 C -3.6510 32.9530 8.2630 0
M  V30 22 C -5.3560 31.9120 6.8690 0
M  V30 23 C -3.0860 31.7040 8.4700 0
M  V30 24 O -1.9990 31.4190 9.2400 0
M  V30 25 C -3.6410 30.5740 7.8870 0
M  V30 26 O -2.9690 29.4290 8.2180 0
M  V30 27 C -4.7470 30.6610 7.0850 0
M  V30 28 C -6.6810 36.0930 17.8780 0
M  V30 29 C -8.0590 35.8360 17.9010 0
M  V30 30 C -6.0370 36.3640 16.6580 0
M  V30 31 C -5.8060 35.9930 19.1140 0
M  V30 32 C -6.7610 36.3120 15.4890 0
M  V30 33 O -6.2840 36.5260 14.2170 0
M  V30 34 C -8.0990 35.9660 15.5050 0
M  V30 35 C -8.7700 35.7610 16.6910 0
M  V30 36 O -8.6390 35.8670 14.2350 0
M  V30 37 C -8.8470 35.5730 19.1740 0
M  V30 38 C -9.1250 34.0990 19.4110 0
M  V30 39 C -8.3210 33.2920 20.2070 0
M  V30 40 C -10.2230 33.5350 18.7220 0
M  V30 41 C -10.4600 32.1930 18.8140 0
M  V30 42 O -11.4340 31.4840 18.1610 0
M  V30 43 C -9.6710 31.3880 19.6220 0
M  V30 44 O -10.0670 30.0720 19.6100 0
M  V30 45 C -8.6120 31.9130 20.3280 0
M  V30 46 C -7.0740 33.8000 20.9100 0
M  V30 47 C -5.8110 33.5970 20.0780 0
M  V30 48 C -5.2260 34.5910 19.2720 0
M  V30 49 C -5.2310 32.3140 20.1070 0
M  V30 50 C -4.1080 32.0490 19.3530 0
M  V30 51 O -3.4410 30.8550 19.2680 0
M  V30 52 C -3.5270 33.0430 18.5740 0
M  V30 53 C -4.0770 34.3020 18.5230 0
M  V30 54 O -2.4140 32.6060 17.8940 0
M  V30 55 C -12.0060 25.4890 16.3390 0
M  V30 56 C -11.4300 26.0810 17.4690 0
M  V30 57 C -12.7860 26.2830 15.4790 0
M  V30 58 C -11.7530 24.0070 16.0980 0
M  V30 59 C -11.5980 27.4210 17.7100 0
M  V30 60 O -11.0930 28.1360 18.7680 0
M  V30 61 C -12.3230 28.2180 16.8320 0
M  V30 62 O -12.3240 29.5310 17.1930 0
M  V30 63 C -12.9300 27.6620 15.7330 0
M  V30 64 C -13.4820 25.7390 14.2300 0
M  V30 65 C -12.6690 25.9360 12.9660 0
M  V30 66 C -11.8400 24.9520 12.4200 0
M  V30 67 C -12.7380 27.2000 12.3530 0
M  V30 68 C -11.9880 27.4540 11.2340 0
M  V30 69 O -11.9220 28.6410 10.5380 0
M  V30 70 C -11.1550 26.4840 10.6900 0
M  V30 71 O -10.4450 26.9310 9.6030 0
M  V30 72 C -11.0710 25.2380 11.2700 0
M  V30 73 C -11.6570 23.5820 13.0510 0
M  V30 74 C -10.4200 23.5240 13.9470 0
M  V30 75 C -10.4670 23.7380 15.3330 0
M  V30 76 C -9.1760 23.3220 13.3090 0
M  V30 77 C -8.0290 23.3480 14.0420 0
M  V30 78 O -6.7530 23.2280 13.5610 0
M  V30 79 C -8.0640 23.5430 15.4260 0
M  V30 80 O -6.8130 23.5630 15.9830 0
M  V30 81 C -9.2660 23.7380 16.0610 0
M  V30 82 C 0.1310 26.4760 12.4470 0
M  V30 83 C 0.7060 27.6310 13.0060 0
M  V30 84 C -0.6660 26.5770 11.2870 0
M  V30 85 C 0.2530 25.0850 13.0660 0
M  V30 86 C -0.8550 27.8160 10.7170 0
M  V30 87 O -1.6240 28.0940 9.6180 0
M  V30 88 C -0.2540 28.9570 11.2360 0
M  V30 89 O -0.5430 30.0770 10.5220 0
M  V30 90 C 0.5230 28.8720 12.3710 0
M  V30 91 C 1.4860 27.6360 14.3030 0
M  V30 92 C 0.6140 27.9720 15.4920 0
M  V30 93 C 0.0670 27.0160 16.3590 0
M  V30 94 C 0.3160 29.3420 15.7080 0
M  V30 95 C -0.5140 29.7110 16.7610 0
M  V30 96 O -0.9440 30.9690 17.0550 0
M  V30 97 C -1.0170 28.7570 17.6260 0
M  V30 98 O -1.8250 29.2960 18.5990 0
M  V30 99 C -0.7340 27.4190 17.4460 0
M  V30 100 C 0.1950 25.5290 16.1120 0
M  V30 101 C -0.9850 24.9640 15.3260 0
M  V30 102 C -0.9450 24.7340 13.9460 0
M  V30 103 C -2.1720 24.7300 16.0410 0
M  V30 104 C -3.2730 24.2610 15.3830 0
M  V30 105 O -4.5000 24.0010 15.9310 0
M  V30 106 C -3.2340 23.9990 14.0140 0
M  V30 107 O -4.4240 23.5300 13.5370 0
M  V30 108 C -2.0830 24.2300 13.2860 0
M  V30 109 Si -7.5340 36.4700 12.9980 0
M  V30 110 Si -1.4790 29.7560 9.0770 0
M  V30 111 Si -1.8650 31.0560 18.5160 0
M  V30 112 Si -5.5550 23.1450 14.8330 0
M  V30 113 Si -11.0250 28.4810 9.0360 0
M  V30 114 Si -11.5640 29.8320 18.7360 0
M  V30 115 H -7.5360 29.5790 6.6790 0
M  V30 116 H -10.4610 32.7590 8.3870 0
M  V30 117 H -9.3280 34.4960 7.0790 0
M  V30 118 H -7.9490 34.2110 6.3910 0
M  V30 119 H -9.4720 34.7560 9.4970 0
M  V30 120 H -4.8920 35.5660 9.6410 0
M  V30 121 H -5.9030 34.4960 6.4690 0
M  V30 122 H -4.7000 35.1110 7.2650 0
M  V30 123 H -3.2710 33.7110 8.6480 0
M  V30 124 H -5.0950 29.8990 6.6840 0
M  V30 125 H -6.4940 31.2890 5.2810 0
M  V30 126 H -6.7050 32.8070 5.6100 0
M  V30 127 H -5.1330 36.5770 16.6420 0
M  V30 128 H -9.6820 35.5760 16.6890 0
M  V30 129 H -8.3510 35.9240 19.9300 0
M  V30 130 H -9.6910 36.0490 19.1270 0
M  V30 131 H -10.7810 34.0750 18.2090 0
M  V30 132 H -8.0950 31.3690 20.8790 0
M  V30 133 H -6.9750 33.3350 21.7550 0
M  V30 134 H -7.1790 34.7460 21.1010 0
M  V30 135 H -5.6060 31.6470 20.6350 0
M  V30 136 H -3.6880 34.9580 17.9940 0
M  V30 137 H -6.3310 36.2160 19.9000 0
M  V30 138 H -5.0810 36.6360 19.0490 0
M  V30 139 H -10.9320 25.5630 18.0600 0
M  V30 140 H -13.4340 28.1930 15.1590 0
M  V30 141 H -13.6530 24.7910 14.3510 0
M  V30 142 H -14.3370 26.1850 14.1270 0
M  V30 143 H -13.2910 27.8590 12.7060 0
M  V30 144 H -10.5120 24.5900 10.9050 0
M  V30 145 H -11.5760 22.9150 12.3500 0
M  V30 146 H -12.4430 23.3670 13.5780 0
M  V30 147 H -9.1410 23.1720 12.3920 0
M  V30 148 H -9.2860 23.8700 16.9820 0
M  V30 149 H -11.7120 23.5510 16.9550 0
M  V30 150 H -12.4990 23.6380 15.6010 0
M  V30 151 H -1.0570 25.8200 10.9130 0
M  V30 152 H 0.9260 29.6350 12.7160 0
M  V30 153 H 1.8850 26.7610 14.4390 0
M  V30 154 H 2.2040 28.2870 14.2410 0
M  V30 155 H 0.6750 29.9930 15.1470 0
M  V30 156 H -1.0710 26.7860 18.0380 0
M  V30 157 H 0.2570 25.0690 16.9650 0
M  V30 158 H 1.0150 25.3580 15.6220 0
M  V30 159 H -2.2070 24.8920 16.9550 0
M  V30 160 H -2.0590 24.0550 12.3720 0
M  V30 161 H 1.0610 25.0450 13.6000 0
M  V30 162 H 0.3290 24.4260 12.3570 0
M  V30 END ATOM
M  V30 BEGIN BOND
M  V30 1 1   1   4
M  V30 2 1   1   3
M  V30 3 1   1   2
M  V30 4 1   2  10
M  V30 5 1   2   8
M  V30 6 1   3 115
M  V30 7 1   3   5
M  V30 8 1   4 125
M  V30 9 1   4 126
M  V30 10 1   4  22
M  V30 11 1   5   6
M  V30 12 1   5   7
M  V30 13 1   6 113
M  V30 14 1   7   8
M  V30 15 1   7   9
M  V30 16 1   8 116
M  V30 17 1   9 113
M  V30 18 1  10 118
M  V30 19 1  10 117
M  V30 20 1  10  11
M  V30 21 1  11  12
M  V30 22 1  11  13
M  V30 23 1  12  19
M  V30 24 1  12  18
M  V30 25 1  13 119
M  V30 26 1  13  14
M  V30 27 1  14  16
M  V30 28 1  14  15
M  V30 29 1  15 109
M  V30 30 1  16  18
M  V30 31 1  16  17
M  V30 32 1  17 109
M  V30 33 1  18 120
M  V30 34 1  19 121
M  V30 35 1  19 122
M  V30 36 1  19  20
M  V30 37 1  20  22
M  V30 38 1  20  21
M  V30 39 1  21  23
M  V30 40 1  21 123
M  V30 41 1  22  27
M  V30 42 1  23  25
M  V30 43 1  23  24
M  V30 44 1  24 110
M  V30 45 1  25  27
M  V30 46 1  25  26
M  V30 47 1  26 110
M  V30 48 1  27 124
M  V30 49 1  28  30
M  V30 50 1  28  29
M  V30 51 1  28  31
M  V30 52 1  29  35
M  V30 53 1  29  37
M  V30 54 1  30  32
M  V30 55 1  30 127
M  V30 56 1  31 138
M  V30 57 1  31  48
M  V30 58 1  31 137
M  V30 59 1  32  33
M  V30 60 1  32  34
M  V30 61 1  33 109
M  V30 62 1  34  36
M  V30 63 1  34  35
M  V30 64 1  35 128
M  V30 65 1  36 109
M  V30 66 1  37 130
M  V30 67 1  37  38
M  V30 68 1  37 129
M  V30 69 1  38  40
M  V30 70 1  38  39
M  V30 71 1  39  45
M  V30 72 1  39  46
M  V30 73 1  40 131
M  V30 74 1  40  41
M  V30 75 1  41  42
M  V30 76 1  41  43
M  V30 77 1  42 114
M  V30 78 1  43  44
M  V30 79 1  43  45
M  V30 80 1  44 114
M  V30 81 1  45 132
M  V30 82 1  46  47
M  V30 83 1  46 134
M  V30 84 1  46 133
M  V30 85 1  47  48
M  V30 86 1  47  49
M  V30 87 1  48  53
M  V30 88 1  49  50
M  V30 89 1  49 135
M  V30 90 1  50  52
M  V30 91 1  50  51
M  V30 92 1  51 111
M  V30 93 1  52  54
M  V30 94 1  52  53
M  V30 95 1  53 136
M  V30 96 1  54 111
M  V30 97 1  55  57
M  V30 98 1  55  58
M  V30 99 1  55  56
M  V30 100 1  56  59
M  V30 101 1  56 139
M  V30 102 1  57  64
M  V30 103 1  57  63
M  V30 104 1  58  75
M  V30 105 1  58 150
M  V30 106 1  58 149
M  V30 107 1  59  61
M  V30 108 1  59  60
M  V30 109 1  60 114
M  V30 110 1  61  63
M  V30 111 1  61  62
M  V30 112 1  62 114
M  V30 113 1  63 140
M  V30 114 1  64  65
M  V30 115 1  64 142
M  V30 116 1  64 141
M  V30 117 1  65  67
M  V30 118 1  65  66
M  V30 119 1  66  72
M  V30 120 1  66  73
M  V30 121 1  67  68
M  V30 122 1  67 143
M  V30 123 1  68  69
M  V30 124 1  68  70
M  V30 125 1  69 113
M  V30 126 1  70  71
M  V30 127 1  70  72
M  V30 128 1  71 113
M  V30 129 1  72 144
M  V30 130 1  73 145
M  V30 131 1  73 146
M  V30 132 1  73  74
M  V30 133 1  74  76
M  V30 134 1  74  75
M  V30 135 1  75  81
M  V30 136 1  76 147
M  V30 137 1  76  77
M  V30 138 1  77  78
M  V30 139 1  77  79
M  V30 140 1  78 112
M  V30 141 1  79  80
M  V30 142 1  79  81
M  V30 143 1  80 112
M  V30 144 1  81 148
M  V30 145 1  82  84
M  V30 146 1  82  83
M  V30 147 1  82  85
M  V30 148 1  83  90
M  V30 149 1  83  91
M  V30 150 1  84  86
M  V30 151 1  84 151
M  V30 152 1  85 162
M  V30 153 1  85 161
M  V30 154 1  85 102
M  V30 155 1  86  87
M  V30 156 1  86  88
M  V30 157 1  87 110
M  V30 158 1  88  89
M  V30 159 1  88  90
M  V30 160 1  89 110
M  V30 161 1  90 152
M  V30 162 1  91 154
M  V30 163 1  91 153
M  V30 164 1  91  92
M  V30 165 1  92  94
M  V30 166 1  92  93
M  V30 167 1  93 100
M  V30 168 1  93  99
M  V30 169 1  94 155
M  V30 170 1  94  95
M  V30 171 1  95  96
M  V30 172 1  95  97
M  V30 173 1  96 111
M  V30 174 1  97  99
M  V30 175 1  97  98
M  V30 176 1  98 111
M  V30 177 1  99 156
M  V30 178 1 100 101
M  V30 179 1 100 158
M  V30 180 1 100 157
M  V30 181 1 101 102
M  V30 182 1 101 103
M  V30 183 1 102 108
M  V30 184 1 103 104
M  V30 185 1 103 159
M  V30 186 1 104 106
M  V30 187 1 104 105
M  V30 188 1 105 112
M  V30 189 1 106 108
M  V30 190 1 106 107
M  V30 191 1 107 112
M  V30 192 1 108 160
M  V30 193 1 M   END
M  V30 END BOND
M  V30 END CTAB

