     RDKit          3D

  0  0  0  0  0  0  0  0  0  0999 V3000
M  V30 BEGIN CTAB
M  V30 COUNTS 294 318 0 0 0
M  V30 BEGIN ATOM
M  V30 1 Pd 13.1480 19.7220 13.3730 0
M  V30 2 N 13.3650 18.3600 11.8810 0
M  V30 3 N 12.9310 21.0840 11.8810 0
M  V30 4 N 13.3800 18.3420 14.8880 0
M  V30 5 N 12.9170 21.1030 14.8880 0
M  V30 6 Pd 18.5950 27.1530 3.9820 0
M  V30 7 N 18.5070 25.3860 2.9870 0
M  V30 8 N 16.9500 26.4970 4.9950 0
M  V30 9 N 18.6700 28.9500 4.9760 0
M  V30 10 N 20.2530 27.8290 2.9670 0
M  V30 11 C 11.7330 21.3180 11.3390 0
M  V30 12 C 14.0130 21.6660 11.3210 0
M  V30 13 C 17.0660 25.7360 6.0870 0
M  V30 14 C 15.7280 26.7380 4.5020 0
M  V30 15 C 19.0700 24.3000 3.4920 0
M  V30 16 C 17.7610 25.2630 1.8660 0
M  V30 17 N 13.6680 24.1220 7.9560 0
M  V30 18 C 12.5510 23.6110 8.4700 0
M  V30 19 C 13.4930 24.8500 6.8530 0
M  V30 20 N 12.3300 25.0810 6.2620 0
M  V30 21 C 11.2780 24.5190 6.8630 0
M  V30 22 N 11.3230 23.7740 7.9700 0
M  V30 23 C 12.5750 17.1030 14.6850 0
M  V30 24 C 12.9090 19.0040 16.1420 0
M  V30 25 C 14.8180 17.9370 14.9790 0
M  V30 26 C 20.1110 27.7740 1.5210 0
M  V30 27 C 21.4450 27.0930 3.4060 0
M  V30 28 C 20.3850 29.2630 3.3770 0
M  V30 29 C 17.5660 29.8120 4.5790 0
M  V30 30 C 19.9690 29.5470 4.6390 0
M  V30 31 C 18.5650 28.7840 6.4760 0
M  V30 32 C 13.9160 22.4860 10.2300 0
M  V30 33 C 12.6750 22.7440 9.6720 0
M  V30 34 C 11.5650 22.1490 10.2370 0
M  V30 35 C 14.5940 26.2120 5.0800 0
M  V30 36 C 14.7080 25.4290 6.2160 0
M  V30 37 C 15.9830 25.1810 6.7260 0
M  V30 38 C 8.5700 25.6440 4.4960 0
M  V30 39 N 7.4840 25.0810 5.0000 0
M  V30 40 C 9.8240 25.4840 5.0800 0
M  V30 41 C 9.9480 24.7260 6.2210 0
M  V30 42 C 8.8040 24.1400 6.7540 0
M  V30 43 C 17.5660 24.0660 1.2330 0
M  V30 44 C 18.1520 22.9220 1.7670 0
M  V30 45 C 13.3870 20.4400 16.1420 0
M  V30 46 H 14.8520 21.5020 11.6880 0
M  V30 47 H 14.6790 22.8700 9.8630 0
M  V30 48 H 10.7160 22.3020 9.8860 0
M  V30 49 H 10.9870 20.9080 11.7100 0
M  V30 50 H 15.6440 27.2750 3.7480 0
M  V30 51 H 13.7580 26.3800 4.7100 0
M  V30 52 H 16.0960 24.6500 7.4800 0
M  V30 53 H 17.9160 25.5730 6.4290 0
M  V30 54 H 8.4940 26.1600 3.7250 0
M  V30 55 H 10.5710 25.8890 4.7030 0
M  V30 56 H 17.0510 24.0190 0.4600 0
M  V30 57 H 17.3610 26.0250 1.5140 0
M  V30 58 H 14.9260 17.2980 15.6880 0
M  V30 59 H 15.3570 18.7100 15.1640 0
M  V30 60 H 15.0940 17.5450 14.1480 0
M  V30 61 H 13.2610 18.5360 16.9150 0
M  V30 62 H 11.9410 18.9780 16.1830 0
M  V30 63 H 12.7170 16.5040 15.4200 0
M  V30 64 H 12.8460 16.6740 13.8670 0
M  V30 65 H 11.6440 17.3320 14.6300 0
M  V30 66 H 20.9130 28.1050 1.1090 0
M  V30 67 H 19.3670 28.3160 1.2520 0
M  V30 68 H 19.9620 26.8670 1.2490 0
M  V30 69 H 22.2120 27.4170 2.9330 0
M  V30 70 H 21.3260 26.1600 3.2270 0
M  V30 71 H 21.5710 27.2250 4.3490 0
M  V30 72 H 18.6100 29.6440 6.8980 0
M  V30 73 H 19.2880 28.2340 6.7860 0
M  V30 74 H 17.7290 28.3630 6.6940 0
M  V30 75 H 17.6240 30.6460 5.0480 0
M  V30 76 H 16.7320 29.3830 4.7890 0
M  V30 77 H 17.6110 29.9730 3.6330 0
M  V30 78 H 21.3160 29.5230 3.2970 0
M  V30 79 H 19.8750 29.8070 2.7570 0
M  V30 80 H 19.9090 30.5090 4.7420 0
M  V30 81 H 20.6350 29.2230 5.2690 0
M  V30 82 C 12.2830 17.7790 11.3210 0
M  V30 83 C 14.5630 18.1260 11.3390 0
M  V30 84 H 11.4440 17.9420 11.6880 0
M  V30 85 C 12.3800 16.9580 10.2300 0
M  V30 86 C 14.7310 17.2950 10.2370 0
M  V30 87 H 15.3100 18.5360 11.7100 0
M  V30 88 H 11.6180 16.5750 9.8630 0
M  V30 89 C 13.6210 16.7010 9.6720 0
M  V30 90 H 15.5810 17.1430 9.8860 0
M  V30 91 C 13.7450 15.8330 8.4700 0
M  V30 92 N 12.6290 15.3230 7.9560 0
M  V30 93 N 14.9730 15.6700 7.9700 0
M  V30 94 C 12.8040 14.5940 6.8530 0
M  V30 95 C 15.0180 14.9260 6.8630 0
M  V30 96 N 13.9660 14.3630 6.2620 0
M  V30 97 C 11.5890 14.0160 6.2160 0
M  V30 98 C 16.3480 14.7180 6.2210 0
M  V30 99 C 11.7020 13.2320 5.0800 0
M  V30 100 C 10.3130 14.2630 6.7260 0
M  V30 101 C 16.4720 13.9610 5.0800 0
M  V30 102 C 17.4920 15.3040 6.7540 0
M  V30 103 C 10.5680 12.7060 4.5020 0
M  V30 104 H 12.5380 13.0640 4.7100 0
M  V30 105 H 10.2000 14.7940 7.4800 0
M  V30 106 C 9.2300 13.7080 6.0870 0
M  V30 107 C 17.7260 13.8000 4.4960 0
M  V30 108 H 15.7250 13.5560 4.7030 0
M  V30 109 H 17.4450 15.8200 7.5280 0
M  V30 110 C 18.6890 15.1100 6.1220 0
M  V30 111 N 9.3460 12.9480 4.9950 0
M  V30 112 H 10.6530 12.1700 3.7480 0
M  V30 113 H 8.3810 13.8710 6.4290 0
M  V30 114 N 18.8120 14.3630 5.0000 0
M  V30 115 H 17.8030 13.2850 3.7250 0
M  V30 116 H 19.4510 15.5100 6.4730 0
M  V30 117 Pd 7.7020 12.2910 3.9820 0
M  V30 118 Pd 20.5790 14.2760 4.0060 0
M  V30 119 N 7.7890 14.0580 2.9870 0
M  V30 120 N 6.0430 11.6150 2.9670 0
M  V30 121 N 7.6260 10.4950 4.9760 0
M  V30 122 N 19.9230 15.9210 2.9930 0
M  V30 123 N 21.2550 12.6170 5.0200 0
M  V30 124 N 22.3760 14.2000 3.0120 0
M  V30 125 C 7.2260 15.1440 3.4920 0
M  V30 126 C 8.5360 14.1820 1.8660 0
M  V30 127 C 6.1850 11.6700 1.5210 0
M  V30 128 C 4.8520 12.3510 3.4060 0
M  V30 129 C 5.9110 10.1820 3.3770 0
M  V30 130 C 7.7310 10.6610 6.4760 0
M  V30 131 C 8.7300 9.6320 4.5790 0
M  V30 132 C 6.3270 9.8980 4.6390 0
M  V30 133 C 20.1640 17.1430 3.4860 0
M  V30 134 C 19.1620 15.8040 1.9010 0
M  V30 135 C 21.2000 12.7590 6.4670 0
M  V30 136 C 20.5190 11.4260 4.5820 0
M  V30 137 C 22.6880 12.4850 4.6110 0
M  V30 138 C 22.2100 14.3050 1.5110 0
M  V30 139 C 23.2380 15.3040 3.4090 0
M  V30 140 C 22.9720 12.9010 3.3480 0
M  V30 141 H 6.7110 15.0680 4.2620 0
M  V30 142 C 7.3870 16.3980 2.9080 0
M  V30 143 C 8.7300 15.3780 1.2330 0
M  V30 144 H 8.9350 13.4190 1.5140 0
M  V30 145 H 5.3830 11.3390 1.1090 0
M  V30 146 H 6.9290 11.1290 1.2520 0
M  V30 147 H 6.3350 12.5780 1.2490 0
M  V30 148 H 4.0840 12.0280 2.9330 0
M  V30 149 H 4.9700 13.2850 3.2270 0
M  V30 150 H 4.7250 12.2200 4.3490 0
M  V30 151 H 4.9810 9.9220 3.2970 0
M  V30 152 H 6.4220 9.6380 2.7570 0
M  V30 153 H 7.6860 9.8010 6.8980 0
M  V30 154 H 7.0080 11.2100 6.7860 0
M  V30 155 H 8.5670 11.0810 6.6940 0
M  V30 156 H 8.6730 8.7990 5.0480 0
M  V30 157 H 9.5640 10.0610 4.7890 0
M  V30 158 H 8.6860 9.4720 3.6330 0
M  V30 159 H 6.3870 8.9350 4.7420 0
M  V30 160 H 5.6620 10.2210 5.2690 0
M  V30 161 H 20.7000 17.2270 4.2400 0
M  V30 162 C 19.6380 18.2760 2.9080 0
M  V30 163 C 18.6070 16.8870 1.2620 0
M  V30 164 H 18.9990 14.9550 1.5590 0
M  V30 165 H 21.5310 11.9570 6.8790 0
M  V30 166 H 21.7420 13.5030 6.7350 0
M  V30 167 H 20.2930 12.9090 6.7380 0
M  V30 168 H 20.8420 10.6580 5.0550 0
M  V30 169 H 19.5850 11.5440 4.7610 0
M  V30 170 H 20.6500 11.3000 3.6390 0
M  V30 171 H 22.9490 11.5550 4.6900 0
M  V30 172 H 23.2330 12.9960 5.2300 0
M  V30 173 H 23.0700 14.2600 1.0900 0
M  V30 174 H 21.6600 13.5820 1.2010 0
M  V30 175 H 21.7890 15.1410 1.2940 0
M  V30 176 H 24.0720 15.2470 2.9390 0
M  V30 177 H 22.8090 16.1380 3.1980 0
M  V30 178 H 23.3980 15.2600 4.3550 0
M  V30 179 H 23.9350 12.9610 3.2460 0
M  V30 180 H 22.6490 12.2360 2.7190 0
M  V30 181 H 6.9820 17.1450 3.2850 0
M  V30 182 C 8.1440 16.5220 1.7670 0
M  V30 183 H 9.2460 15.4250 0.4600 0
M  V30 184 H 19.8060 19.1120 3.2780 0
M  V30 185 C 18.8540 18.1630 1.7720 0
M  V30 186 H 18.0760 16.7740 0.5080 0
M  V30 187 C 8.3520 17.8530 1.1250 0
M  V30 188 C 18.2760 19.3780 1.1340 0
M  V30 189 N 7.7890 18.9040 1.7260 0
M  V30 190 N 9.0960 17.8980 0.0180 0
M  V30 191 N 17.5480 19.2030 0.0310 0
M  V30 192 N 18.5070 20.5400 1.7260 0
M  V30 193 C 8.0200 20.0670 1.1340 0
M  V30 194 C 9.2590 19.1250 -0.4820 0
M  V30 195 C 17.0370 20.3190 -0.4820 0
M  V30 196 C 17.9450 21.5920 1.1250 0
M  V30 197 N 8.7490 20.2420 0.0310 0
M  V30 198 C 7.4420 21.2820 1.7720 0
M  V30 199 C 10.1270 19.2490 -1.6840 0
M  V30 200 N 17.2000 21.5470 0.0180 0
M  V30 201 C 16.1700 20.1960 -1.6840 0
M  V30 202 C 6.6580 21.1690 2.9080 0
M  V30 203 C 7.6890 22.5570 1.2620 0
M  V30 204 C 10.3840 20.4900 -2.2420 0
M  V30 205 C 10.7210 18.1390 -2.2490 0
M  V30 206 C 15.9120 18.9540 -2.2420 0
M  V30 207 C 15.5750 21.3050 -2.2490 0
M  V30 208 C 18.9100 23.0460 2.9080 0
M  V30 209 C 6.1320 22.3020 3.4860 0
M  V30 210 H 6.4900 20.3320 3.2780 0
M  V30 211 H 8.2200 22.6700 0.5080 0
M  V30 212 C 7.1340 23.6400 1.9010 0
M  V30 213 C 11.2050 20.5870 -3.3330 0
M  V30 214 H 10.0000 21.2530 -1.8760 0
M  V30 215 H 10.5680 17.2900 -1.8980 0
M  V30 216 C 11.5520 18.3070 -3.3520 0
M  V30 217 C 15.0910 18.8570 -3.3330 0
M  V30 218 H 16.2960 18.1920 -1.8760 0
M  V30 219 H 15.7280 22.1550 -1.8980 0
M  V30 220 C 14.7440 21.1370 -3.3520 0
M  V30 221 H 19.3150 22.2990 3.2850 0
M  V30 222 N 6.3730 23.5240 2.9930 0
M  V30 223 H 5.5960 22.2180 4.2400 0
M  V30 224 H 7.2970 24.4900 1.5590 0
M  V30 225 N 11.7860 19.5050 -3.8940 0
M  V30 226 H 11.3680 21.4260 -3.7000 0
M  V30 227 H 11.9620 17.5610 -3.7220 0
M  V30 228 N 14.5100 19.9390 -3.8940 0
M  V30 229 H 14.9280 18.0180 -3.7000 0
M  V30 230 H 14.3340 21.8840 -3.7220 0
M  V30 231 H 19.5850 24.3770 4.2620 0
M  V30 232 Pd 5.7170 25.1690 4.0060 0
M  V30 233 Pd 13.1480 19.7220 -5.3850 0
M  V30 234 N 5.0410 26.8270 5.0200 0
M  V30 235 N 3.9210 25.2440 3.0120 0
M  V30 236 N 11.7680 19.4910 -6.9000 0
M  V30 237 N 14.5290 19.9540 -6.9000 0
M  V30 238 C 7.6080 24.3350 6.1220 0
M  V30 239 C 5.0960 26.6850 6.4670 0
M  V30 240 C 5.7770 28.0190 4.5820 0
M  V30 241 C 3.6080 26.9590 4.6110 0
M  V30 242 C 4.0860 25.1390 1.5110 0
M  V30 243 C 3.0580 24.1400 3.4090 0
M  V30 244 C 3.3240 26.5430 3.3480 0
M  V30 245 C 11.3630 18.0520 -6.9910 0
M  V30 246 C 12.4300 19.9620 -8.1540 0
M  V30 247 C 10.5290 20.2950 -6.6970 0
M  V30 248 C 14.9340 21.3920 -6.9910 0
M  V30 249 C 13.8660 19.4830 -8.1540 0
M  V30 250 C 15.7670 19.1490 -6.6970 0
M  V30 251 H 6.8450 23.9350 6.4730 0
M  V30 252 H 4.7650 27.4880 6.8790 0
M  V30 253 H 4.5550 25.9410 6.7350 0
M  V30 254 H 6.0030 26.5360 6.7380 0
M  V30 255 H 5.4540 28.7870 5.0550 0
M  V30 256 H 6.7110 27.9000 4.7610 0
M  V30 257 H 5.6460 28.1450 3.6390 0
M  V30 258 H 3.3480 27.8900 4.6900 0
M  V30 259 H 3.0640 26.4490 5.2300 0
M  V30 260 H 3.2270 25.1840 1.0900 0
M  V30 261 H 4.6360 25.8620 1.2010 0
M  V30 262 H 4.5070 24.3030 1.2940 0
M  V30 263 H 2.2250 24.1980 2.9390 0
M  V30 264 H 3.4870 23.3060 3.1980 0
M  V30 265 H 2.8980 24.1850 4.3550 0
M  V30 266 H 2.3610 26.4830 3.2460 0
M  V30 267 H 3.6470 27.2090 2.7190 0
M  V30 268 H 10.7240 17.9450 -7.7000 0
M  V30 269 H 12.1360 17.5130 -7.1760 0
M  V30 270 H 10.9710 17.7760 -6.1600 0
M  V30 271 H 11.9620 19.6090 -8.9270 0
M  V30 272 H 12.4040 20.9290 -8.1950 0
M  V30 273 H 9.9290 20.1530 -7.4320 0
M  V30 274 H 10.1000 20.0250 -5.8790 0
M  V30 275 H 10.7580 21.2260 -6.6430 0
M  V30 276 H 15.5730 21.5000 -7.7000 0
M  V30 277 H 14.1610 21.9310 -7.1760 0
M  V30 278 H 15.3250 21.6680 -6.1600 0
M  V30 279 H 14.3340 19.8350 -8.9270 0
M  V30 280 H 13.8920 18.5150 -8.1950 0
M  V30 281 H 16.3670 19.2910 -7.4320 0
M  V30 282 H 16.1960 19.4200 -5.8790 0
M  V30 283 H 15.5380 18.2180 -6.6430 0
M  V30 284 H 8.8510 23.6250 7.5280 0
M  V30 285 C 11.4780 21.5080 14.9790 0
M  V30 286 C 13.7210 22.3410 14.6850 0
M  V30 287 H 11.3710 22.1470 15.6880 0
M  V30 288 H 10.9390 20.7350 15.1640 0
M  V30 289 H 11.2020 21.9000 14.1480 0
M  V30 290 H 13.5790 22.9410 15.4200 0
M  V30 291 H 13.4510 22.7700 13.8670 0
M  V30 292 H 14.6520 22.1130 14.6300 0
M  V30 293 H 13.0350 20.9080 16.9150 0
M  V30 294 H 14.3550 20.4660 16.1830 0
M  V30 END ATOM
M  V30 BEGIN BOND
M  V30 1 1   1   2
M  V30 2 1   1   3
M  V30 3 1   1   4
M  V30 4 1   1   5
M  V30 5 1   2  82
M  V30 6 1   2  83
M  V30 7 1   3  12
M  V30 8 1   3  11
M  V30 9 1   4  23
M  V30 10 1   4  25
M  V30 11 1   4  24
M  V30 12 1   5 286
M  V30 13 1   5 285
M  V30 14 1   5  45
M  V30 15 1   6  10
M  V30 16 1   6   7
M  V30 17 1   6   9
M  V30 18 1   6   8
M  V30 19 1   7  16
M  V30 20 1   7  15
M  V30 21 1   8  14
M  V30 22 1   8  13
M  V30 23 1   9  29
M  V30 24 1   9  30
M  V30 25 1   9  31
M  V30 26 1  10  26
M  V30 27 1  10  28
M  V30 28 1  10  27
M  V30 29 1  11  34
M  V30 30 1  11  49
M  V30 31 1  12  32
M  V30 32 1  12  46
M  V30 33 1  13  53
M  V30 34 1  13  37
M  V30 35 1  14  50
M  V30 36 1  14  35
M  V30 37 1  15 208
M  V30 38 1  15 231
M  V30 39 1  16  43
M  V30 40 1  16  57
M  V30 41 1  17  19
M  V30 42 1  17  18
M  V30 43 1  18  22
M  V30 44 1  18  33
M  V30 45 1  19  36
M  V30 46 1  19  20
M  V30 47 1  20  21
M  V30 48 1  21  41
M  V30 49 1  21  22
M  V30 50 1  23  64
M  V30 51 1  23  65
M  V30 52 1  23  63
M  V30 53 1  24  45
M  V30 54 1  24  62
M  V30 55 1  24  61
M  V30 56 1  25  60
M  V30 57 1  25  59
M  V30 58 1  25  58
M  V30 59 1  26  66
M  V30 60 1  26  68
M  V30 61 1  26  67
M  V30 62 1  27  69
M  V30 63 1  27  70
M  V30 64 1  27  71
M  V30 65 1  28  79
M  V30 66 1  28  78
M  V30 67 1  28  30
M  V30 68 1  29  77
M  V30 69 1  29  76
M  V30 70 1  29  75
M  V30 71 1  30  80
M  V30 72 1  30  81
M  V30 73 1  31  74
M  V30 74 1  31  73
M  V30 75 1  31  72
M  V30 76 1  32  33
M  V30 77 1  32  47
M  V30 78 1  33  34
M  V30 79 1  34  48
M  V30 80 1  35  51
M  V30 81 1  35  36
M  V30 82 1  36  37
M  V30 83 1  37  52
M  V30 84 1  38  54
M  V30 85 1  38  39
M  V30 86 1  38  40
M  V30 87 1  39 232
M  V30 88 1  39 238
M  V30 89 1  40  55
M  V30 90 1  40  41
M  V30 91 1  41  42
M  V30 92 1  42 238
M  V30 93 1  42 284
M  V30 94 1  43  56
M  V30 95 1  43  44
M  V30 96 1  44 196
M  V30 97 1  44 208
M  V30 98 1  45 294
M  V30 99 1  45 293
M  V30 100 1  82  85
M  V30 101 1  82  84
M  V30 102 1  83  86
M  V30 103 1  83  87
M  V30 104 1  85  89
M  V30 105 1  85  88
M  V30 106 1  86  89
M  V30 107 1  86  90
M  V30 108 1  89  91
M  V30 109 1  91  92
M  V30 110 1  91  93
M  V30 111 1  92  94
M  V30 112 1  93  95
M  V30 113 1  94  97
M  V30 114 1  94  96
M  V30 115 1  95  98
M  V30 116 1  95  96
M  V30 117 1  97  99
M  V30 118 1  97 100
M  V30 119 1  98 101
M  V30 120 1  98 102
M  V30 121 1  99 103
M  V30 122 1  99 104
M  V30 123 1 100 106
M  V30 124 1 100 105
M  V30 125 1 101 107
M  V30 126 1 101 108
M  V30 127 1 102 110
M  V30 128 1 102 109
M  V30 129 1 103 112
M  V30 130 1 103 111
M  V30 131 1 106 111
M  V30 132 1 106 113
M  V30 133 1 107 115
M  V30 134 1 107 114
M  V30 135 1 110 114
M  V30 136 1 110 116
M  V30 137 1 111 117
M  V30 138 1 114 118
M  V30 139 1 117 120
M  V30 140 1 117 119
M  V30 141 1 117 121
M  V30 142 1 118 122
M  V30 143 1 118 124
M  V30 144 1 118 123
M  V30 145 1 119 126
M  V30 146 1 119 125
M  V30 147 1 120 127
M  V30 148 1 120 129
M  V30 149 1 120 128
M  V30 150 1 121 131
M  V30 151 1 121 132
M  V30 152 1 121 130
M  V30 153 1 122 134
M  V30 154 1 122 133
M  V30 155 1 123 136
M  V30 156 1 123 137
M  V30 157 1 123 135
M  V30 158 1 124 138
M  V30 159 1 124 140
M  V30 160 1 124 139
M  V30 161 1 125 142
M  V30 162 1 125 141
M  V30 163 1 126 143
M  V30 164 1 126 144
M  V30 165 1 127 145
M  V30 166 1 127 147
M  V30 167 1 127 146
M  V30 168 1 128 148
M  V30 169 1 128 149
M  V30 170 1 128 150
M  V30 171 1 129 152
M  V30 172 1 129 151
M  V30 173 1 129 132
M  V30 174 1 130 155
M  V30 175 1 130 154
M  V30 176 1 130 153
M  V30 177 1 131 158
M  V30 178 1 131 157
M  V30 179 1 131 156
M  V30 180 1 132 159
M  V30 181 1 132 160
M  V30 182 1 133 162
M  V30 183 1 133 161
M  V30 184 1 134 163
M  V30 185 1 134 164
M  V30 186 1 135 166
M  V30 187 1 135 167
M  V30 188 1 135 165
M  V30 189 1 136 170
M  V30 190 1 136 169
M  V30 191 1 136 168
M  V30 192 1 137 140
M  V30 193 1 137 171
M  V30 194 1 137 172
M  V30 195 1 138 173
M  V30 196 1 138 174
M  V30 197 1 138 175
M  V30 198 1 139 176
M  V30 199 1 139 177
M  V30 200 1 139 178
M  V30 201 1 140 180
M  V30 202 1 140 179
M  V30 203 1 142 182
M  V30 204 1 142 181
M  V30 205 1 143 183
M  V30 206 1 143 182
M  V30 207 1 162 185
M  V30 208 1 162 184
M  V30 209 1 163 186
M  V30 210 1 163 185
M  V30 211 1 182 187
M  V30 212 1 185 188
M  V30 213 1 187 190
M  V30 214 1 187 189
M  V30 215 1 188 191
M  V30 216 1 188 192
M  V30 217 1 189 193
M  V30 218 1 190 194
M  V30 219 1 191 195
M  V30 220 1 192 196
M  V30 221 1 193 197
M  V30 222 1 193 198
M  V30 223 1 194 199
M  V30 224 1 194 197
M  V30 225 1 195 201
M  V30 226 1 195 200
M  V30 227 1 196 200
M  V30 228 1 198 203
M  V30 229 1 198 202
M  V30 230 1 199 205
M  V30 231 1 199 204
M  V30 232 1 201 207
M  V30 233 1 201 206
M  V30 234 1 202 210
M  V30 235 1 202 209
M  V30 236 1 203 211
M  V30 237 1 203 212
M  V30 238 1 204 213
M  V30 239 1 204 214
M  V30 240 1 205 216
M  V30 241 1 205 215
M  V30 242 1 206 217
M  V30 243 1 206 218
M  V30 244 1 207 220
M  V30 245 1 207 219
M  V30 246 1 208 221
M  V30 247 1 209 222
M  V30 248 1 209 223
M  V30 249 1 212 224
M  V30 250 1 212 222
M  V30 251 1 213 225
M  V30 252 1 213 226
M  V30 253 1 216 225
M  V30 254 1 216 227
M  V30 255 1 217 228
M  V30 256 1 217 229
M  V30 257 1 220 228
M  V30 258 1 220 230
M  V30 259 1 222 232
M  V30 260 1 225 233
M  V30 261 1 228 233
M  V30 262 1 232 235
M  V30 263 1 232 234
M  V30 264 1 233 237
M  V30 265 1 233 236
M  V30 266 1 234 240
M  V30 267 1 234 241
M  V30 268 1 234 239
M  V30 269 1 235 242
M  V30 270 1 235 244
M  V30 271 1 235 243
M  V30 272 1 236 246
M  V30 273 1 236 245
M  V30 274 1 236 247
M  V30 275 1 237 249
M  V30 276 1 237 248
M  V30 277 1 237 250
M  V30 278 1 238 251
M  V30 279 1 239 253
M  V30 280 1 239 254
M  V30 281 1 239 252
M  V30 282 1 240 257
M  V30 283 1 240 256
M  V30 284 1 240 255
M  V30 285 1 241 244
M  V30 286 1 241 258
M  V30 287 1 241 259
M  V30 288 1 242 260
M  V30 289 1 242 261
M  V30 290 1 242 262
M  V30 291 1 243 263
M  V30 292 1 243 264
M  V30 293 1 243 265
M  V30 294 1 244 267
M  V30 295 1 244 266
M  V30 296 1 245 268
M  V30 297 1 245 269
M  V30 298 1 245 270
M  V30 299 1 246 271
M  V30 300 1 246 272
M  V30 301 1 246 249
M  V30 302 1 247 273
M  V30 303 1 247 275
M  V30 304 1 247 274
M  V30 305 1 248 276
M  V30 306 1 248 277
M  V30 307 1 248 278
M  V30 308 1 249 279
M  V30 309 1 249 280
M  V30 310 1 250 281
M  V30 311 1 250 283
M  V30 312 1 250 282
M  V30 313 1 285 289
M  V30 314 1 285 288
M  V30 315 1 285 287
M  V30 316 1 286 291
M  V30 317 1 286 292
M  V30 318 1 286 290
M  V30 319 1 M   END
M  V30 END BOND
M  V30 END CTAB

