     RDKit          3D

  0  0  0  0  0  0  0  0  0  0999 V3000
M  V30 BEGIN CTAB
M  V30 COUNTS 1290 1500 0 0 0
M  V30 BEGIN ATOM
M  V30 1 C 31.749 8.451 -3.599 0
M  V30 2 C 33.141 8.414 -3.714 0
M  V30 3 N 33.91 8.715 -2.634 0
M  V30 4 C 33.354 9.046 -1.454 0
M  V30 5 C 31.962 9.105 -1.296 0
M  V30 6 C 31.112 8.803 -2.375 0
M  V30 7 C 29.61 8.767 -2.159 0
M  V30 8 C 28.599 8.326 -3.009 0
M  V30 9 O 28.878 7.708 -4.189 0
M  V30 10 C 28.892 6.312 -4.276 0
M  V30 11 Se 28.907 9.479 -0.646 0
M  V30 12 C 25.713 8.803 -4.261 0
M  V30 13 O 26.167 8.083 -3.153 0
M  V30 14 C 27.295 8.48 -2.491 0
M  V30 15 C 27.237 9.09 -1.252 0
M  V30 16 C 25.991 9.531 -0.489 0
M  V30 17 C 26.101 10.023 0.835 0
M  V30 18 C 24.944 10.302 1.584 0
M  V30 19 N 23.706 10.111 1.08 0
M  V30 20 C 23.552 9.634 -0.173 0
M  V30 21 C 24.673 9.34 -0.979 0
M  V30 22 C 14.651 13.859 10.178 0
M  V30 23 C 14.336 14.381 11.445 0
M  V30 24 N 15.325 14.763 12.294 0
M  V30 25 C 16.607 14.638 11.891 0
M  V30 26 C 16.981 14.131 10.639 0
M  V30 27 C 15.985 13.719 9.732 0
M  V30 28 C 16.395 13.205 8.364 0
M  V30 29 C 15.611 12.882 7.256 0
M  V30 30 O 14.248 12.992 7.241 0
M  V30 31 C 13.706 14.146 6.665 0
M  V30 32 Se 18.16 12.962 7.981 0
M  V30 33 C 15.384 10.831 4.636 0
M  V30 34 O 15.699 12.147 4.952 0
M  V30 35 C 16.322 12.492 6.104 0
M  V30 36 C 17.699 12.448 6.285 0
M  V30 37 C 18.746 11.985 5.283 0
M  V30 38 C 20.124 12.081 5.6 0
M  V30 39 C 21.105 11.684 4.679 0
M  V30 40 N 20.768 11.199 3.455 0
M  V30 41 C 19.464 11.096 3.11 0
M  V30 42 C 18.446 11.485 3.988 0
M  V30 43 C 13.04 16.284 17.779 0
M  V30 44 C 13.267 15.916 16.455 0
M  V30 45 N 14.527 15.814 15.951 0
M  V30 46 C 15.589 16.056 16.771 0
M  V30 47 C 15.413 16.453 18.096 0
M  V30 48 C 14.117 16.563 18.672 0
M  V30 49 C 13.948 17.004 20.111 0
M  V30 50 C 12.783 17.32 20.817 0
M  V30 51 O 11.56 17.379 20.212 0
M  V30 52 C 10.93 18.591 19.953 0
M  V30 53 Se 15.406 17.041 21.226 0
M  V30 54 C 10.945 17.092 23.394 0
M  V30 55 O 11.97 17.952 23.034 0
M  V30 56 C 12.974 17.614 22.17 0
M  V30 57 C 14.3 17.518 22.602 0
M  V30 58 C 14.878 17.621 23.998 0
M  V30 59 C 16.285 17.57 24.157 0
M  V30 60 C 16.849 17.643 25.438 0
M  V30 61 N 16.065 17.746 26.546 0
M  V30 62 C 14.717 17.776 26.431 0
M  V30 63 C 14.095 17.709 25.179 0
M  V30 64 C 22.827 14.484 37.473 0
M  V30 65 C 24.065 14.329 38.106 0
M  V30 66 N 25.208 14.785 37.531 0
M  V30 67 C 25.178 15.395 36.336 0
M  V30 68 C 23.969 15.578 35.645 0
M  V30 69 C 22.753 15.138 36.221 0
M  V30 70 C 21.464 15.424 35.478 0
M  V30 71 C 20.167 15.226 35.918 0
M  V30 72 O 19.852 14.66 37.113 0
M  V30 73 C 19.384 13.359 37.214 0
M  V30 74 Se 21.53 16.181 33.809 0
M  V30 75 C 17.259 16.291 36.221 0
M  V30 76 O 17.86 15.498 35.256 0
M  V30 77 C 19.186 15.608 34.983 0
M  V30 78 C 19.691 16.159 33.802 0
M  V30 79 C 18.944 16.593 32.564 0
M  V30 80 C 19.677 17.033 31.441 0
M  V30 81 C 19.003 17.482 30.289 0
M  V30 82 N 17.655 17.445 30.217 0
M  V30 83 C 16.908 16.997 31.268 0
M  V30 84 C 17.53 16.556 32.449 0
M  V30 85 C 15.706 13.558 28.274 0
M  V30 86 C 15.706 14.939 28.475 0
M  V30 87 N 16.798 15.659 28.116 0
M  V30 88 C 17.882 15.057 27.569 0
M  V30 89 C 17.926 13.675 27.353 0
M  V30 90 C 16.82 12.874 27.727 0
M  V30 91 C 16.878 11.368 27.482 0
M  V30 92 C 15.985 10.368 27.856 0
M  V30 93 O 14.952 10.582 28.72 0
M  V30 94 C 13.626 10.361 28.389 0
M  V30 95 Se 18.124 10.729 26.306 0
M  V30 96 C 14.248 7.789 26.834 0
M  V30 97 O 15.442 8.024 27.482 0
M  V30 98 C 16.212 9.119 27.252 0
M  V30 99 C 17.31 9.09 26.388 0
M  V30 100 C 17.845 7.899 25.611 0
M  V30 101 C 19.047 7.98 24.876 0
M  V30 102 C 19.53 6.915 24.099 0
M  V30 103 N 18.842 5.739 24.07 0
M  V30 104 C 17.669 5.621 24.718 0
M  V30 105 C 17.135 6.672 25.481 0
M  V30 106 C 13.992 11.397 15.548 0
M  V30 107 C 13.985 12.669 14.958 0
M  V30 108 N 15.105 13.403 14.799 0
M  V30 109 C 16.285 12.911 15.245 0
M  V30 110 C 16.358 11.64 15.821 0
M  V30 111 C 15.215 10.831 15.994 0
M  V30 112 C 15.296 9.634 16.93 0
M  V30 113 C 14.351 8.627 17.117 0
M  V30 114 O 13.106 8.664 16.57 0
M  V30 115 C 12.842 8.524 15.202 0
M  V30 116 Se 16.864 9.266 17.814 0
M  V30 117 C 12.769 6.614 18.859 0
M  V30 118 O 14.007 6.496 18.24 0
M  V30 119 C 14.798 7.561 17.938 0
M  V30 120 C 16.094 7.708 18.413 0
M  V30 121 C 16.878 6.849 19.392 0
M  V30 122 C 18.226 7.194 19.665 0
M  V30 123 C 18.944 6.444 20.601 0
M  V30 124 N 18.373 5.438 21.306 0
M  V30 125 C 17.083 5.092 21.09 0
M  V30 126 C 16.322 5.79 20.14 0
M  V30 127 C 22.585 -1.235 13.374 0
M  V30 128 C 23.442 -1.418 12.28 0
M  V30 129 N 24.394 -0.492 12.006 0
M  V30 130 C 24.541 0.603 12.798 0
M  V30 131 C 23.698 0.845 13.892 0
M  V30 132 C 22.688 -0.096 14.209 0
M  V30 133 C 21.794 0.162 15.418 0
M  V30 134 C 20.761 -0.639 15.908 0
M  V30 135 O 20.241 -1.653 15.159 0
M  V30 136 C 20.658 -2.976 15.26 0
M  V30 137 Se 22.299 1.462 16.613 0
M  V30 138 C 19.618 -2.124 18.557 0
M  V30 139 O 19.354 -0.926 17.88 0
M  V30 140 C 20.329 -0.272 17.189 0
M  V30 141 C 21.017 0.808 17.75 0
M  V30 142 C 20.57 1.683 18.916 0
M  V30 143 C 21.384 2.77 19.305 0
M  V30 144 C 21.083 3.49 20.471 0
M  V30 145 N 20.028 3.145 21.249 0
M  V30 146 C 19.215 2.116 20.918 0
M  V30 147 C 19.472 1.381 19.751 0
M  V30 148 C 21.567 6.599 3.167 0
M  V30 149 C 21.501 7.87 2.577 0
M  V30 150 N 22.241 8.891 3.052 0
M  V30 151 C 23.061 8.693 4.117 0
M  V30 152 C 23.156 7.437 4.722 0
M  V30 153 C 22.438 6.312 4.247 0
M  V30 154 C 22.578 4.945 4.895 0
M  V30 155 C 21.918 3.762 4.564 0
M  V30 156 O 21.054 3.652 3.513 0
M  V30 157 C 21.442 2.939 2.361 0
M  V30 158 Se 23.691 4.674 6.329 0
M  V30 159 C 20.468 1.132 5.643 0
M  V30 160 O 21.742 1.411 5.154 0
M  V30 161 C 22.277 2.645 5.341 0
M  V30 162 C 23.186 2.925 6.349 0
M  V30 163 C 23.823 1.969 7.342 0
M  V30 164 C 24.746 2.498 8.263 0
M  V30 165 C 25.295 1.646 9.242 0
M  V30 166 N 24.929 0.345 9.329 0
M  V30 167 C 24.057 -0.198 8.465 0
M  V30 168 C 23.501 0.603 7.457 0
M  V30 169 C 32.526 -5.952 18.269 0
M  V30 170 C 33.713 -5.908 19.003 0
M  V30 171 N 34.313 -4.718 19.262 0
M  V30 172 C 33.764 -3.564 18.83 0
M  V30 173 C 32.599 -3.557 18.053 0
M  V30 174 C 31.932 -4.769 17.765 0
M  V30 175 C 30.76 -4.74 16.8 0
M  V30 176 C 29.933 -5.776 16.368 0
M  V30 177 O 30.006 -7.032 16.901 0
M  V30 178 C 29.01 -7.569 17.707 0
M  V30 179 Se 30.401 -3.182 15.908 0
M  V30 180 C 28.423 -7.054 13.676 0
M  V30 181 O 28.145 -6.29 14.814 0
M  V30 182 C 29.017 -5.408 15.375 0
M  V30 183 C 29.097 -4.071 14.972 0
M  V30 184 C 28.196 -3.321 14.007 0
M  V30 185 C 28.394 -1.933 13.791 0
M  V30 186 C 27.669 -1.271 12.784 0
M  V30 187 N 26.761 -1.925 12.035 0
M  V30 188 C 26.548 -3.255 12.179 0
M  V30 189 C 27.259 -3.953 13.144 0
M  V30 190 C 28.555 -2.689 8.004 0
M  V30 191 C 27.413 -2.366 8.753 0
M  V30 192 N 27.347 -1.205 9.444 0
M  V30 193 C 28.372 -0.331 9.415 0
M  V30 194 C 29.544 -0.617 8.71 0
M  V30 195 C 29.669 -1.822 7.975 0
M  V30 196 C 31.024 -2.234 7.443 0
M  V30 197 C 31.324 -3.351 6.651 0
M  V30 198 O 30.357 -4.218 6.234 0
M  V30 199 C 29.83 -4.093 4.952 0
M  V30 200 Se 32.533 -1.257 7.772 0
M  V30 201 C 33.434 -5.658 6.176 0
M  V30 202 O 33.141 -4.468 5.499 0
M  V30 203 C 32.665 -3.439 6.248 0
M  V30 204 C 33.493 -2.447 6.766 0
M  V30 205 C 34.995 -2.3 6.637 0
M  V30 206 C 35.632 -1.102 7.04 0
M  V30 207 C 37.009 -0.941 6.896 0
M  V30 208 N 37.793 -1.947 6.421 0
M  V30 209 C 37.222 -3.108 6.032 0
M  V30 210 C 35.837 -3.314 6.118 0
M  V30 211 C 39.221 -0.507 2.447 0
M  V30 212 C 39.566 -1.198 3.613 0
M  V30 213 N 39.617 -0.558 4.808 0
M  V30 214 C 39.324 0.757 4.88 0
M  V30 215 C 38.972 1.499 3.743 0
M  V30 216 C 38.936 0.874 2.476 0
M  V30 217 C 38.562 1.69 1.238 0
M  V30 218 C 38.569 1.286 -0.086 0
M  V30 219 O 39.112 0.103 -0.489 0
M  V30 220 C 38.357 -1.007 -0.821 0
M  V30 221 Se 37.793 3.351 1.441 0
M  V30 222 C 39.009 1.617 -3.095 0
M  V30 223 O 37.925 2.035 -2.332 0
M  V30 224 C 38.005 2.219 -0.979 0
M  V30 225 C 37.544 3.38 -0.37 0
M  V30 226 C 36.98 4.615 -1.037 0
M  V30 227 C 36.804 5.783 -0.259 0
M  V30 228 C 36.306 6.959 -0.849 0
M  V30 229 N 36.079 7.01 -2.188 0
M  V30 230 C 36.277 5.923 -2.966 0
M  V30 231 C 36.731 4.71 -2.419 0
M  V30 232 C 39.602 -4.74 9.401 0
M  V30 233 C 39.756 -4.056 8.191 0
M  V30 234 N 39.822 -2.704 8.148 0
M  V30 235 C 39.764 -1.969 9.271 0
M  V30 236 C 39.573 -2.601 10.509 0
M  V30 237 C 39.514 -4.005 10.61 0
M  V30 238 C 39.192 -4.651 11.931 0
M  V30 239 C 39.331 -5.989 12.265 0
M  V30 240 O 39.683 -6.944 11.359 0
M  V30 241 C 38.672 -7.804 10.912 0
M  V30 242 Se 38.65 -3.674 13.371 0
M  V30 243 C 38.064 -8.473 13.619 0
M  V30 244 O 39.053 -7.583 14.051 0
M  V30 245 C 38.994 -6.298 13.59 0
M  V30 246 C 38.606 -5.21 14.364 0
M  V30 247 C 38.064 -5.188 15.778 0
M  V30 248 C 37.961 -3.961 16.469 0
M  V30 249 C 37.353 -3.887 17.736 0
M  V30 250 N 36.914 -5.004 18.355 0
M  V30 251 C 37.016 -6.209 17.75 0
M  V30 252 C 37.588 -6.334 16.469 0
M  V30 253 C 31.932 -1.69 30.289 0
M  V30 254 C 31.456 -0.705 31.153 0
M  V30 255 N 31.361 0.588 30.764 0
M  V30 256 C 31.727 0.948 29.512 0
M  V30 257 C 32.211 -0.007 28.605 0
M  V30 258 C 32.328 -1.367 28.965 0
M  V30 259 C 32.841 -2.381 27.953 0
M  V30 260 C 33.039 -3.748 28.101 0
M  V30 261 O 32.753 -4.453 29.238 0
M  V30 262 C 31.867 -5.511 29.296 0
M  V30 263 Se 33.354 -1.822 26.282 0
M  V30 264 C 32.841 -6.658 26.647 0
M  V30 265 O 33.83 -5.724 26.935 0
M  V30 266 C 33.573 -4.387 26.964 0
M  V30 267 C 33.808 -3.542 25.899 0
M  V30 268 C 34.299 -3.917 24.502 0
M  V30 269 C 34.526 -2.91 23.538 0
M  V30 270 C 34.987 -3.241 22.271 0
M  V30 271 N 35.28 -4.519 21.954 0
M  V30 272 C 35.097 -5.511 22.847 0
M  V30 273 C 34.614 -5.239 24.128 0
M  V30 274 C 20.966 2.153 25.913 0
M  V30 275 C 20.146 2.682 24.92 0
M  V30 276 N 20.614 3.608 24.041 0
M  V30 277 C 21.896 4.034 24.113 0
M  V30 278 C 22.768 3.52 25.078 0
M  V30 279 C 22.314 2.579 26.028 0
M  V30 280 C 23.288 1.999 27.036 0
M  V30 281 C 23.076 0.919 27.885 0
M  V30 282 O 21.955 0.162 27.842 0
M  V30 283 C 20.944 0.367 28.792 0
M  V30 284 Se 24.885 2.829 27.387 0
M  V30 285 C 23.222 -0.294 30.808 0
M  V30 286 O 24.057 -0.287 29.742 0
M  V30 287 C 24.101 0.713 28.835 0
M  V30 288 C 25.164 1.609 28.735 0
M  V30 289 C 26.424 1.653 29.57 0
M  V30 290 C 27.427 2.616 29.31 0
M  V30 291 C 28.592 2.653 30.088 0
M  V30 292 N 28.834 1.734 31.038 0
M  V30 293 C 27.911 0.779 31.312 0
M  V30 294 C 26.717 0.72 30.606 0
M  V30 295 C 28.387 3.887 35.04 0
M  V30 296 C 28.973 2.881 34.248 0
M  V30 297 N 29.823 3.204 33.255 0
M  V30 298 C 30.116 4.505 33.01 0
M  V30 299 C 29.559 5.541 33.773 0
M  V30 300 C 28.68 5.261 34.853 0
M  V30 301 C 28.043 6.378 35.659 0
M  V30 302 C 27.156 6.239 36.724 0
M  V30 303 O 26.651 5.041 37.128 0
M  V30 304 C 27.039 4.563 38.38 0
M  V30 305 Se 28.533 8.135 35.455 0
M  V30 306 C 24.665 7.253 38.178 0
M  V30 307 O 26.013 7.481 38.481 0
M  V30 308 C 26.885 7.429 37.43 0
M  V30 309 C 27.486 8.553 36.897 0
M  V30 310 C 27.251 9.994 37.3 0
M  V30 311 C 27.852 11.03 36.552 0
M  V30 312 C 27.691 12.36 36.955 0
M  V30 313 N 27.046 12.683 38.092 0
M  V30 314 C 26.49 11.713 38.855 0
M  V30 315 C 26.577 10.368 38.495 0
M  V30 316 C 30.094 14.638 41.403 0
M  V30 317 C 28.826 14.535 40.813 0
M  V30 318 N 28.643 14.579 39.474 0
M  V30 319 C 29.72 14.733 38.668 0
M  V30 320 C 31.009 14.858 39.215 0
M  V30 321 C 31.251 14.785 40.611 0
M  V30 322 C 32.628 15.064 41.173 0
M  V30 323 C 33.009 14.961 42.497 0
M  V30 324 O 32.211 14.381 43.447 0
M  V30 325 C 32.16 12.992 43.476 0
M  V30 326 Se 33.954 15.836 40.172 0
M  V30 327 C 34.137 15.799 45.175 0
M  V30 328 O 34.811 15.358 44.052 0
M  V30 329 C 34.313 15.417 42.785 0
M  V30 330 C 34.987 15.946 41.691 0
M  V30 331 C 36.386 16.519 41.605 0
M  V30 332 C 36.958 16.813 40.338 0
M  V30 333 C 38.233 17.371 40.223 0
M  V30 334 N 39.002 17.585 41.317 0
M  V30 335 C 38.496 17.327 42.555 0
M  V30 336 C 37.214 16.806 42.713 0
M  V30 337 C 42.445 14.608 41.749 0
M  V30 338 C 42.005 15.939 41.777 0
M  V30 339 N 41.558 16.534 40.655 0
M  V30 340 C 41.507 15.858 39.489 0
M  V30 341 C 41.954 14.535 39.417 0
M  V30 342 C 42.452 13.874 40.554 0
M  V30 343 C 42.848 12.419 40.424 0
M  V30 344 C 43.273 11.53 41.403 0
M  V30 345 O 43.463 11.904 42.699 0
M  V30 346 C 44.716 12.051 43.275 0
M  V30 347 Se 42.701 11.61 38.792 0
M  V30 348 C 44.979 9.332 42.612 0
M  V30 349 O 43.932 9.207 41.734 0
M  V30 350 C 43.5 10.222 40.928 0
M  V30 351 C 43.251 10.053 39.575 0
M  V30 352 C 43.463 8.796 38.74 0
M  V30 353 C 43.089 8.759 37.387 0
M  V30 354 C 43.338 7.613 36.609 0
M  V30 355 N 43.932 6.518 37.128 0
M  V30 356 C 44.305 6.503 38.438 0
M  V30 357 C 44.078 7.62 39.244 0
M  V30 358 C 40.877 3.02 36.811 0
M  V30 359 C 42.166 3.571 36.811 0
M  V30 360 N 42.547 4.46 35.861 0
M  V30 361 C 41.676 4.813 34.896 0
M  V30 362 C 40.372 4.313 34.853 0
M  V30 363 C 39.925 3.388 35.832 0
M  V30 364 C 38.526 2.8 35.717 0
M  V30 365 C 37.83 2.021 36.624 0
M  V30 366 O 38.401 1.499 37.747 0
M  V30 367 C 38.687 0.125 37.732 0
M  V30 368 Se 37.463 3.241 34.293 0
M  V30 369 C 35.419 1.066 38.337 0
M  V30 370 O 35.698 0.904 36.998 0
M  V30 371 C 36.511 1.69 36.264 0
M  V30 372 C 36.115 2.256 35.04 0
M  V30 373 C 34.76 2.168 34.363 0
M  V30 374 C 34.614 2.66 33.053 0
M  V30 375 C 33.368 2.594 32.406 0
M  V30 376 N 32.284 2.065 33.025 0
M  V30 377 C 32.387 1.602 34.292 0
M  V30 378 C 33.595 1.646 34.997 0
M  V30 379 C 45.946 1.565 33.989 0
M  V30 380 C 45.434 2.454 34.939 0
M  V30 381 N 44.877 3.623 34.551 0
M  V30 382 C 44.804 3.953 33.241 0
M  V30 383 C 45.302 3.101 32.262 0
M  V30 384 C 45.888 1.866 32.607 0
M  V30 385 C 46.408 0.97 31.513 0
M  V30 386 C 46.789 -0.36 31.556 0
M  V30 387 O 46.76 -1.124 32.694 0
M  V30 388 C 47.932 -1.543 33.399 0
M  V30 389 Se 46.62 1.675 29.837 0
M  V30 390 C 46.716 -3.13 29.929 0
M  V30 391 O 47.675 -2.153 30.189 0
M  V30 392 C 47.287 -0.86 30.347 0
M  V30 393 C 47.25 0.051 29.282 0
M  V30 394 C 47.858 -0.11 27.9 0
M  V30 395 C 47.521 0.801 26.878 0
M  V30 396 C 48.056 0.669 25.596 0
M  V30 397 N 48.884 -0.36 25.294 0
M  V30 398 C 49.228 -1.257 26.244 0
M  V30 399 C 48.737 -1.161 27.554 0
M  V30 400 C 47.089 -3.63 22.89 0
M  V30 401 C 48.21 -2.829 23.135 0
M  V30 402 N 48.159 -1.484 22.991 0
M  V30 403 C 46.994 -0.904 22.616 0
M  V30 404 C 45.844 -1.653 22.357 0
M  V30 405 C 45.859 -3.064 22.458 0
M  V30 406 C 44.562 -3.851 22.343 0
M  V30 407 C 44.379 -5.225 22.472 0
M  V30 408 O 45.397 -6.077 22.746 0
M  V30 409 C 46.005 -6.246 23.998 0
M  V30 410 Se 42.994 -2.983 21.945 0
M  V30 411 C 42.818 -7.723 23.451 0
M  V30 412 O 42.65 -6.937 22.328 0
M  V30 413 C 43.045 -5.636 22.271 0
M  V30 414 C 42.152 -4.607 21.983 0
M  V30 415 C 40.657 -4.703 21.709 0
M  V30 416 C 39.932 -3.535 21.378 0
M  V30 417 C 38.606 -3.608 20.961 0
M  V30 418 N 37.961 -4.798 20.918 0
M  V30 419 C 38.621 -5.952 21.177 0
M  V30 420 C 39.969 -5.93 21.551 0
M  V30 421 C 53.455 0.926 12.813 0
M  V30 422 C 53.572 1.653 11.618 0
M  V30 423 N 52.979 2.866 11.474 0
M  V30 424 C 52.254 3.388 12.481 0
M  V30 425 C 52.1 2.712 13.705 0
M  V30 426 C 52.715 1.448 13.907 0
M  V30 427 C 52.518 0.72 15.222 0
M  V30 428 C 52.994 -0.544 15.577 0
M  V30 429 O 53.8 -1.242 14.727 0
M  V30 430 C 55.177 -1.146 14.958 0
M  V30 431 Se 51.558 1.436 16.583 0
M  V30 432 C 52.854 -3.395 16.901 0
M  V30 433 O 53.096 -2.131 17.419 0
M  V30 434 C 52.679 -0.955 16.887 0
M  V30 435 C 51.895 -0.044 17.606 0
M  V30 436 C 51.294 -0.198 18.988 0
M  V30 437 C 50.759 0.919 19.665 0
M  V30 438 C 50.32 0.808 20.99 0
M  V30 439 N 50.378 -0.36 21.681 0
M  V30 440 C 50.869 -1.462 21.061 0
M  V30 441 C 51.316 -1.404 19.737 0
M  V30 442 C 43.976 -1.918 6.061 0
M  V30 443 C 42.606 -2.153 5.96 0
M  V30 444 N 41.705 -1.257 6.449 0
M  V30 445 C 42.137 -0.132 7.04 0
M  V30 446 C 43.507 0.154 7.184 0
M  V30 447 C 44.474 -0.735 6.68 0
M  V30 448 C 45.954 -0.5 6.925 0
M  V30 449 C 47.016 -1.212 6.377 0
M  V30 450 O 46.804 -2.344 5.658 0
M  V30 451 C 46.078 -2.366 4.448 0
M  V30 452 Se 46.532 0.97 7.844 0
M  V30 453 C 49.932 -2.396 6.709 0
M  V30 454 O 49.448 -1.198 6.205 0
M  V30 455 C 48.283 -0.647 6.637 0
M  V30 456 C 48.247 0.514 7.414 0
M  V30 457 C 49.404 1.242 8.062 0
M  V30 458 C 49.17 2.396 8.854 0
M  V30 459 C 50.232 3.152 9.343 0
M  V30 460 N 51.529 2.829 9.113 0
M  V30 461 C 51.792 1.734 8.364 0
M  V30 462 C 50.774 0.941 7.831 0
M  V30 463 C 53.821 5.57 5.974 0
M  V30 464 C 53.829 4.821 7.155 0
M  V30 465 N 52.928 5.07 8.134 0
M  V30 466 C 51.997 6.048 7.99 0
M  V30 467 C 51.961 6.841 6.824 0
M  V30 468 C 52.876 6.599 5.773 0
M  V30 469 C 52.913 7.576 4.607 0
M  V30 470 C 53.814 7.628 3.541 0
M  V30 471 O 54.913 6.819 3.541 0
M  V30 472 C 54.935 5.614 2.85 0
M  V30 473 Se 51.529 8.752 4.378 0
M  V30 474 C 55.528 9.112 1.339 0
M  V30 475 O 54.173 8.774 1.382 0
M  V30 476 C 53.47 8.539 2.534 0
M  V30 477 C 52.29 9.237 2.789 0
M  V30 478 C 51.682 10.354 1.972 0
M  V30 479 C 50.598 11.096 2.491 0
M  V30 480 C 49.954 12.051 1.713 0
M  V30 481 N 50.334 12.294 0.432 0
M  V30 482 C 51.367 11.61 -0.101 0
M  V30 483 C 52.056 10.64 0.633 0
M  V30 484 C 46.965 11.272 -2.822 0
M  V30 485 C 48.049 11.992 -2.303 0
M  V30 486 N 47.961 12.514 -1.051 0
M  V30 487 C 46.847 12.345 -0.302 0
M  V30 488 C 45.734 11.662 -0.792 0
M  V30 489 C 45.778 11.067 -2.087 0
M  V30 490 C 44.503 10.486 -2.678 0
M  V30 491 C 44.364 9.722 -3.829 0
M  V30 492 O 45.404 9.443 -4.664 0
M  V30 493 C 46.078 8.237 -4.535 0
M  V30 494 Se 42.914 10.633 -1.798 0
M  V30 495 C 42.716 9.031 -6.377 0
M  V30 496 O 42.76 8.443 -5.111 0
M  V30 497 C 43.075 9.207 -4.031 0
M  V30 498 C 42.137 9.59 -3.081 0
M  V30 499 C 40.643 9.384 -3.124 0
M  V30 500 C 39.844 9.781 -2.03 0
M  V30 501 C 38.452 9.634 -2.102 0
M  V30 502 N 37.852 9.075 -3.167 0
M  V30 503 C 38.577 8.671 -4.247 0
M  V30 504 C 39.969 8.825 -4.247 0
M  V30 505 C 42.364 21.633 -4.88 0
M  V30 506 C 41.133 22.28 -4.794 0
M  V30 507 N 40.43 22.339 -3.642 0
M  V30 508 C 40.928 21.773 -2.519 0
M  V30 509 C 42.137 21.082 -2.563 0
M  V30 510 C 42.928 21.009 -3.729 0
M  V30 511 C 44.137 20.09 -3.786 0
M  V30 512 C 45.06 19.914 -4.808 0
M  V30 513 O 45.009 20.649 -5.96 0
M  V30 514 C 45.492 21.949 -5.974 0
M  V30 515 Se 44.503 18.973 -2.377 0
M  V30 516 C 46.818 17.709 -6.406 0
M  V30 517 O 47.053 18.621 -5.413 0
M  V30 518 C 46.056 18.959 -4.535 0
M  V30 519 C 45.932 18.327 -3.311 0
M  V30 520 C 46.855 17.276 -2.706 0
M  V30 521 C 46.796 16.982 -1.324 0
M  V30 522 C 47.58 15.968 -0.763 0
M  V30 523 N 48.43 15.248 -1.54 0
M  V30 524 C 48.532 15.498 -2.865 0
M  V30 525 C 47.763 16.504 -3.469 0
M  V30 526 C 35.771 12.338 -5.485 0
M  V30 527 C 35.698 11.037 -4.967 0
M  V30 528 N 35.647 10.809 -3.642 0
M  V30 529 C 35.661 11.831 -2.75 0
M  V30 530 C 35.749 13.154 -3.196 0
M  V30 531 C 35.749 13.44 -4.592 0
M  V30 532 C 35.984 14.873 -5.024 0
M  V30 533 C 35.859 15.431 -6.291 0
M  V30 534 O 35.544 14.675 -7.385 0
M  V30 535 C 36.504 14.035 -8.206 0
M  V30 536 Se 36.46 16.122 -3.778 0
M  V30 537 C 36.848 17.342 -8.594 0
M  V30 538 O 36.093 17.555 -7.486 0
M  V30 539 C 36.137 16.806 -6.349 0
M  V30 540 C 36.474 17.371 -5.111 0
M  V30 541 C 36.899 18.804 -4.851 0
M  V30 542 C 37.082 19.253 -3.527 0
M  V30 543 C 37.573 20.531 -3.239 0
M  V30 544 N 37.903 21.369 -4.247 0
M  V30 545 C 37.764 20.979 -5.528 0
M  V30 546 C 37.28 19.716 -5.859 0
M  V30 547 C 34.731 24.543 -4.779 0
M  V30 548 C 36.086 24.235 -4.808 0
M  V30 549 N 36.716 23.801 -3.7 0
M  V30 550 C 36.035 23.647 -2.548 0
M  V30 551 C 34.672 23.963 -2.447 0
M  V30 552 C 33.976 24.396 -3.585 0
M  V30 553 C 32.482 24.646 -3.513 0
M  V30 554 C 31.639 25.095 -4.535 0
M  V30 555 O 32.116 25.477 -5.744 0
M  V30 556 C 32.086 26.748 -6.19 0
M  V30 557 Se 31.537 24.22 -2.01 0
M  V30 558 C 28.863 24.588 -6.003 0
M  V30 559 O 29.31 25.491 -5.053 0
M  V30 560 C 30.284 25.124 -4.175 0
M  V30 561 C 30.006 24.683 -2.879 0
M  V30 562 C 28.68 24.705 -2.131 0
M  V30 563 C 28.629 24.301 -0.777 0
M  V30 564 C 27.435 24.367 -0.043 0
M  V30 565 N 26.277 24.786 -0.619 0
M  V30 566 C 26.284 25.19 -1.915 0
M  V30 567 C 27.456 25.168 -2.678 0
M  V30 568 C 22.753 21.523 -1.166 0
M  V30 569 C 23.2 22.831 -1.008 0
M  V30 570 N 24.006 23.162 0.029 0
M  V30 571 C 24.372 22.214 0.921 0
M  V30 572 C 23.948 20.884 0.806 0
M  V30 573 C 23.112 20.494 -0.274 0
M  V30 574 C 22.607 19.069 -0.346 0
M  V30 575 C 21.992 18.437 -1.425 0
M  V30 576 O 21.449 19.128 -2.476 0
M  V30 577 C 20.065 19.289 -2.519 0
M  V30 578 Se 23.156 17.842 0.898 0
M  V30 579 C 19.962 15.872 -2.275 0
M  V30 580 O 21.288 16.284 -2.318 0
M  V30 581 C 21.852 17.041 -1.324 0
M  V30 582 C 22.446 16.526 -0.173 0
M  V30 583 C 22.321 15.116 0.389 0
M  V30 584 C 22.834 14.858 1.684 0
M  V30 585 C 22.753 13.572 2.231 0
M  V30 586 N 22.241 12.544 1.512 0
M  V30 587 C 21.764 12.735 0.259 0
M  V30 588 C 21.801 14.013 -0.331 0
M  V30 589 C 17.787 29.041 8.465 0
M  V30 590 C 17.538 29.452 9.775 0
M  V30 591 N 18.321 29.033 10.797 0
M  V30 592 C 19.347 28.196 10.552 0
M  V30 593 C 19.662 27.784 9.257 0
M  V30 594 C 18.871 28.181 8.148 0
M  V30 595 C 19.193 27.718 6.737 0
M  V30 596 C 18.439 27.931 5.586 0
M  V30 597 O 17.245 28.578 5.614 0
M  V30 598 C 17.098 29.856 5.096 0
M  V30 599 Se 20.754 26.851 6.324 0
M  V30 600 C 17.252 27.005 2.865 0
M  V30 601 O 18.468 27.6 3.167 0
M  V30 602 C 19.039 27.49 4.391 0
M  V30 603 C 20.27 26.865 4.571 0
M  V30 604 C 21.186 26.307 3.513 0
M  V30 605 C 22.373 25.646 3.901 0
M  V30 606 C 23.296 25.227 2.922 0
M  V30 607 N 23.076 25.425 1.598 0
M  V30 608 C 21.962 26.087 1.18 0
M  V30 609 C 21.025 26.542 2.116 0
M  V30 610 C 13.465 19.025 13.072 0
M  V30 611 C 13.516 17.636 13.216 0
M  V30 612 N 14.71 17.041 13.446 0
M  V30 613 C 15.809 17.805 13.59 0
M  V30 614 C 15.801 19.201 13.446 0
M  V30 615 C 14.593 19.877 13.172 0
M  V30 616 C 14.549 21.398 13.072 0
M  V30 617 C 13.465 22.221 12.755 0
M  V30 618 O 12.197 21.78 12.525 0
M  V30 619 C 11.098 22.118 13.244 0
M  V30 620 Se 16.072 22.398 13.315 0
M  V30 621 C 12.747 25.205 11.2 0
M  V30 622 O 12.82 24.543 12.409 0
M  V30 623 C 13.758 23.595 12.697 0
M  V30 624 C 15.091 23.897 12.971 0
M  V30 625 C 15.728 25.264 13.129 0
M  V30 626 C 17.127 25.33 13.374 0
M  V30 627 C 17.794 26.557 13.316 0
M  V30 628 N 17.157 27.696 12.971 0
M  V30 629 C 15.831 27.681 12.697 0
M  V30 630 C 15.113 26.483 12.769 0
M  V30 631 C 17.003 30.841 16.498 0
M  V30 632 C 17.083 30.51 15.145 0
M  V30 633 N 18.168 29.849 14.67 0
M  V30 634 C 19.171 29.496 15.505 0
M  V30 635 C 19.135 29.812 16.858 0
M  V30 636 C 18.028 30.488 17.405 0
M  V30 637 C 18.08 30.951 18.859 0
M  V30 638 C 17.091 31.554 19.622 0
M  V30 639 O 15.875 31.892 19.104 0
M  V30 640 C 14.798 31.017 19.291 0
M  V30 641 Se 19.559 30.584 19.859 0
M  V30 642 C 16.336 33.648 22.026 0
M  V30 643 O 16.534 32.274 21.868 0
M  V30 644 C 17.406 31.715 20.99 0
M  V30 645 C 18.688 31.282 21.321 0
M  V30 646 C 19.479 31.385 22.616 0
M  V30 647 C 20.776 30.812 22.645 0
M  V30 648 C 21.479 30.753 23.854 0
M  V30 649 N 20.973 31.274 25.006 0
M  V30 650 C 19.75 31.848 25.006 0
M  V30 651 C 18.995 31.914 23.826 0
M  V30 652 C 16.226 21.758 29.325 0
M  V30 653 C 16.043 20.377 29.253 0
M  V30 654 N 16.959 19.591 28.634 0
M  V30 655 C 18.072 20.134 28.087 0
M  V30 656 C 18.292 21.516 28.13 0
M  V30 657 C 17.354 22.383 28.735 0
M  V30 658 C 17.662 23.86 28.864 0
M  V30 659 C 16.966 24.801 29.627 0
M  V30 660 O 15.985 24.47 30.52 0
M  V30 661 C 16.212 24.507 31.887 0
M  V30 662 Se 18.922 24.668 27.822 0
M  V30 663 C 15.435 27.402 29.944 0
M  V30 664 O 16.798 27.152 30.131 0
M  V30 665 C 17.391 26.131 29.454 0
M  V30 666 C 18.417 26.285 28.519 0
M  V30 667 C 19.157 27.549 28.144 0
M  V30 668 C 20.351 27.49 27.396 0
M  V30 669 C 21.054 28.658 27.079 0
M  V30 670 N 20.651 29.878 27.511 0
M  V30 671 C 19.523 29.981 28.245 0
M  V30 672 C 18.768 28.85 28.576 0
M  V30 673 C 22.702 32.237 30.865 0
M  V30 674 C 22.065 32.215 29.627 0
M  V30 675 N 22.534 31.473 28.591 0
M  V30 676 C 23.625 30.709 28.807 0
M  V30 677 C 24.328 30.738 30.016 0
M  V30 678 C 23.86 31.473 31.139 0
M  V30 679 C 24.68 31.554 32.406 0
M  V30 680 C 24.394 32.267 33.572 0
M  V30 681 O 23.354 33.141 33.658 0
M  V30 682 C 22.043 32.774 33.975 0
M  V30 683 Se 26.131 30.466 32.647 0
M  V30 684 C 24.614 31.892 36.969 0
M  V30 685 O 25.142 32.553 35.875 0
M  V30 686 C 25.266 31.995 34.637 0
M  V30 687 C 26.255 31.061 34.363 0
M  V30 688 C 27.405 30.591 35.227 0
M  V30 689 C 28.365 29.709 34.68 0
M  V30 690 C 29.368 29.158 35.486 0
M  V30 691 N 29.5 29.496 36.782 0
M  V30 692 C 28.607 30.334 37.372 0
M  V30 693 C 27.559 30.878 36.609 0
M  V30 694 C 28.35 25.807 39.834 0
M  V30 695 C 29.061 26.968 39.532 0
M  V30 696 N 29.779 27.071 38.394 0
M  V30 697 C 29.823 26.035 37.516 0
M  V30 698 C 29.105 24.859 37.761 0
M  V30 699 C 28.328 24.712 38.941 0
M  V30 700 C 27.632 23.382 39.201 0
M  V30 701 C 26.629 23.081 40.122 0
M  V30 702 O 26.079 24.029 40.928 0
M  V30 703 C 26.519 24.176 42.253 0
M  V30 704 Se 28.16 21.891 38.294 0
M  V30 705 C 25.596 21.06 42.353 0
M  V30 706 O 25.31 21.229 41 0
M  V30 707 C 26.255 21.729 40.151 0
M  V30 708 C 26.951 20.906 39.258 0
M  V30 709 C 26.958 19.385 39.215 0
M  V30 710 C 27.552 18.709 38.121 0
M  V30 711 C 27.478 17.313 37.991 0
M  V30 712 N 26.826 16.57 38.913 0
M  V30 713 C 26.211 17.173 39.964 0
M  V30 714 C 26.255 18.562 40.136 0
M  V30 715 C 38.833 21.78 42.339 0
M  V30 716 C 39.617 20.627 42.166 0
M  V30 717 N 39.844 20.142 40.928 0
M  V30 718 C 39.331 20.744 39.834 0
M  V30 719 C 38.526 21.883 39.949 0
M  V30 720 C 38.269 22.449 41.23 0
M  V30 721 C 37.229 23.544 41.331 0
M  V30 722 C 36.885 24.338 42.425 0
M  V30 723 O 37.383 24.132 43.678 0
M  V30 724 C 38.386 24.837 44.254 0
M  V30 725 Se 36.35 24.08 39.817 0
M  V30 726 C 36.277 27.365 43.26 0
M  V30 727 O 35.5 26.226 43.044 0
M  V30 728 C 35.94 25.33 42.123 0
M  V30 729 C 35.537 25.396 40.799 0
M  V30 730 C 34.46 26.263 40.165 0
M  V30 731 C 34.299 26.263 38.754 0
M  V30 732 C 33.251 26.968 38.15 0
M  V30 733 N 32.365 27.666 38.898 0
M  V30 734 C 32.497 27.711 40.237 0
M  V30 735 C 33.529 27.035 40.899 0
M  V30 736 C 33.632 31.987 38.222 0
M  V30 737 C 32.548 31.142 38.481 0
M  V30 738 N 32.138 30.216 37.588 0
M  V30 739 C 32.768 30.091 36.393 0
M  V30 740 C 33.859 30.907 36.077 0
M  V30 741 C 34.328 31.892 36.984 0
M  V30 742 C 35.515 32.766 36.624 0
M  V30 743 C 36.145 33.692 37.444 0
M  V30 744 O 35.661 34.126 38.639 0
M  V30 745 C 35.068 35.39 38.711 0
M  V30 746 Se 36.46 32.494 35.079 0
M  V30 747 C 38.665 34.897 38.812 0
M  V30 748 O 38.035 35.162 37.603 0
M  V30 749 C 37.324 34.236 36.912 0
M  V30 750 C 37.683 33.721 35.674 0
M  V30 751 C 38.789 34.17 34.738 0
M  V30 752 C 38.826 33.648 33.428 0
M  V30 753 C 39.851 34.037 32.55 0
M  V30 754 N 40.811 34.912 32.924 0
M  V30 755 C 40.818 35.441 34.176 0
M  V30 756 C 39.822 35.081 35.083 0
M  V30 757 C 39.251 38.601 30.592 0
M  V30 758 C 40.291 37.917 31.211 0
M  V30 759 N 40.628 36.668 30.793 0
M  V30 760 C 39.947 36.066 29.8 0
M  V30 761 C 38.921 36.727 29.109 0
M  V30 762 C 38.533 38.028 29.498 0
M  V30 763 C 37.441 38.755 28.735 0
M  V30 764 C 36.943 40.034 28.994 0
M  V30 765 O 37.324 40.754 30.073 0
M  V30 766 C 38.24 41.812 30.059 0
M  V30 767 Se 36.731 38.042 27.204 0
M  V30 768 C 34.511 42.069 29.066 0
M  V30 769 O 35.419 41.716 28.087 0
M  V30 770 C 36.02 40.489 28.029 0
M  V30 771 C 35.771 39.585 26.993 0
M  V30 772 C 34.76 39.681 25.87 0
M  V30 773 C 34.518 38.527 25.078 0
M  V30 774 C 33.793 38.601 23.898 0
M  V30 775 N 33.324 39.791 23.437 0
M  V30 776 C 33.537 40.923 24.157 0
M  V30 777 C 34.24 40.901 25.366 0
M  V30 778 C 28.629 39.909 23.638 0
M  V30 779 C 29.793 40.35 23.005 0
M  V30 780 N 30.628 39.483 22.386 0
M  V30 781 C 30.335 38.167 22.372 0
M  V30 782 C 29.185 37.668 22.991 0
M  V30 783 C 28.27 38.542 23.624 0
M  V30 784 C 27.083 37.954 24.373 0
M  V30 785 C 26.153 38.601 25.179 0
M  V30 786 O 26.248 39.931 25.424 0
M  V30 787 C 26.006 40.908 24.473 0
M  V30 788 Se 26.709 36.176 24.198 0
M  V30 789 C 24.175 38.064 27.856 0
M  V30 790 O 24.116 38.175 26.474 0
M  V30 791 C 25.134 37.763 25.668 0
M  V30 792 C 25.244 36.426 25.265 0
M  V30 793 C 24.292 35.287 25.567 0
M  V30 794 C 24.717 33.942 25.38 0
M  V30 795 C 23.904 32.884 25.798 0
M  V30 796 N 22.695 33.09 26.388 0
M  V30 797 C 22.255 34.353 26.575 0
M  V30 798 C 23.032 35.441 26.172 0
M  V30 799 C 29.977 39.703 10.696 0
M  V30 800 C 29.874 38.968 9.516 0
M  V30 801 N 30.233 37.66 9.473 0
M  V30 802 C 30.687 37.043 10.581 0
M  V30 803 C 30.79 37.726 11.79 0
M  V30 804 C 30.482 39.108 11.877 0
M  V30 805 C 30.504 39.791 13.23 0
M  V30 806 C 30.35 41.143 13.518 0
M  V30 807 O 30.042 42.069 12.568 0
M  V30 808 C 31.024 42.841 11.978 0
M  V30 809 Se 30.936 38.836 14.72 0
M  V30 810 C 29.259 43.429 15.303 0
M  V30 811 O 30.475 42.745 15.332 0
M  V30 812 C 30.585 41.474 14.871 0
M  V30 813 C 30.9 40.394 15.677 0
M  V30 814 C 31.039 40.35 17.189 0
M  V30 815 C 31.368 39.115 17.808 0
M  V30 816 C 31.705 39.071 19.176 0
M  V30 817 N 31.698 40.188 19.939 0
M  V30 818 C 31.39 41.386 19.392 0
M  V30 819 C 31.075 41.489 18.024 0
M  V30 820 C 19.655 33.09 11.574 0
M  V30 821 C 18.856 32.009 11.963 0
M  V30 822 N 19.413 30.856 12.409 0
M  V30 823 C 20.761 30.723 12.467 0
M  V30 824 C 21.596 31.767 12.05 0
M  V30 825 C 21.069 33.016 11.618 0
M  V30 826 C 21.992 34.008 10.927 0
M  V30 827 C 21.728 35.316 10.524 0
M  V30 828 O 20.482 35.845 10.466 0
M  V30 829 C 19.86 36.007 9.228 0
M  V30 830 Se 23.786 33.641 10.806 0
M  V30 831 C 22.05 37.697 8.494 0
M  V30 832 O 22.783 37.322 9.66 0
M  V30 833 C 22.856 36.044 10.092 0
M  V30 834 C 24.057 35.338 10.178 0
M  V30 835 C 25.427 35.772 9.674 0
M  V30 836 C 26.555 34.963 9.919 0
M  V30 837 C 27.786 35.221 9.314 0
M  V30 838 N 27.933 36.264 8.465 0
M  V30 839 C 26.878 37.058 8.177 0
M  V30 840 C 25.625 36.837 8.767 0
M  V30 841 C 28.145 35.147 4.189 0
M  V30 842 C 28.658 35.963 5.211 0
M  V30 843 N 29.31 35.434 6.277 0
M  V30 844 C 29.471 34.096 6.363 0
M  V30 845 C 28.98 33.229 5.37 0
M  V30 846 C 28.284 33.744 4.261 0
M  V30 847 C 27.647 32.781 3.268 0
M  V30 848 C 27.061 33.09 2.044 0
M  V30 849 O 26.958 34.375 1.612 0
M  V30 850 C 27.911 35.345 1.728 0
M  V30 851 Se 27.625 30.988 3.608 0
M  V30 852 C 25.273 33.141 -0.288 0
M  V30 853 O 25.977 32.068 0.13 0
M  V30 854 C 26.577 31.965 1.339 0
M  V30 855 C 26.783 30.745 2.001 0
M  V30 856 C 26.211 29.379 1.641 0
M  V30 857 C 26.555 28.24 2.404 0
M  V30 858 C 26.109 26.961 2.044 0
M  V30 859 N 25.369 26.763 0.921 0
M  V30 860 C 25.002 27.821 0.158 0
M  V30 861 C 25.398 29.114 0.504 0
M  V30 862 C 33.302 37.925 5.83 0
M  V30 863 C 31.991 37.792 6.291 0
M  V30 864 N 31.647 36.778 7.112 0
M  V30 865 C 32.577 35.882 7.515 0
M  V30 866 C 33.888 35.941 7.04 0
M  V30 867 C 34.306 36.991 6.19 0
M  V30 868 C 35.705 36.991 5.6 0
M  V30 869 C 36.262 37.961 4.765 0
M  V30 870 O 35.551 39.02 4.304 0
M  V30 871 C 35.603 40.276 4.909 0
M  V30 872 Se 36.929 35.72 6.046 0
M  V30 873 C 38.24 38.579 2.318 0
M  V30 874 O 38.342 38.608 3.7 0
M  V30 875 C 37.624 37.763 4.477 0
M  V30 876 C 38.174 36.617 5.053 0
M  V30 877 C 39.588 36.073 4.995 0
M  V30 878 C 39.903 34.853 5.629 0
M  V30 879 C 41.177 34.302 5.543 0
M  V30 880 N 42.152 34.868 4.779 0
M  V30 881 C 41.895 36.044 4.16 0
M  V30 882 C 40.65 36.653 4.261 0
M  V30 883 C 42.804 32.752 0.72 0
M  V30 884 C 43.295 33.523 1.785 0
M  V30 885 N 43.302 33.031 3.038 0
M  V30 886 C 42.84 31.782 3.282 0
M  V30 887 C 42.335 30.981 2.246 0
M  V30 888 C 42.313 31.436 0.907 0
M  V30 889 C 41.932 30.496 -0.216 0
M  V30 890 C 41.793 30.819 -1.569 0
M  V30 891 O 42.232 32.009 -2.073 0
M  V30 892 C 43.573 32.259 -2.303 0
M  V30 893 Se 41.236 28.835 0.144 0
M  V30 894 C 39.778 30.496 -4.175 0
M  V30 895 O 40.921 29.9 -3.671 0
M  V30 896 C 41.185 29.812 -2.332 0
M  V30 897 C 40.796 28.681 -1.62 0
M  V30 898 C 40.313 27.358 -2.188 0
M  V30 899 C 39.859 26.336 -1.324 0
M  V30 900 C 39.368 25.131 -1.843 0
M  V30 901 N 39.265 24.918 -3.182 0
M  V30 902 C 39.676 25.881 -4.045 0
M  V30 903 C 40.188 27.093 -3.57 0
M  V30 904 C 53.807 28.291 4.247 0
M  V30 905 C 54.649 27.277 4.722 0
M  V30 906 N 54.217 26.417 5.658 0
M  V30 907 C 52.972 26.557 6.162 0
M  V30 908 C 52.085 27.534 5.701 0
M  V30 909 C 52.488 28.475 4.722 0
M  V30 910 C 51.536 29.577 4.29 0
M  V30 911 C 51.682 30.532 3.282 0
M  V30 912 O 52.811 30.606 2.519 0
M  V30 913 C 52.95 29.908 1.324 0
M  V30 914 Se 49.902 29.739 5.092 0
M  V30 915 C 49.595 32.406 1.152 0
M  V30 916 O 50.51 32.355 2.159 0
M  V30 917 C 50.576 31.37 3.095 0
M  V30 918 C 49.514 31.12 3.959 0
M  V30 919 C 48.254 31.936 4.16 0
M  V30 920 C 47.214 31.421 4.981 0
M  V30 921 C 45.968 32.046 5.067 0
M  V30 922 N 45.661 33.112 4.29 0
M  V30 923 C 46.606 33.619 3.455 0
M  V30 924 C 47.888 33.053 3.369 0
M  V30 925 C 52.466 16.651 -0.677 0
M  V30 926 C 51.638 15.549 -0.936 0
M  V30 927 N 50.774 15.101 0.014 0
M  V30 928 C 50.686 15.711 1.209 0
M  V30 929 C 51.507 16.806 1.512 0
M  V30 930 C 52.422 17.313 0.561 0
M  V30 931 C 53.169 18.606 0.884 0
M  V30 932 C 54.019 19.37 0.101 0
M  V30 933 O 54.422 19.025 -1.152 0
M  V30 934 C 55.66 18.422 -1.382 0
M  V30 935 Se 52.92 19.4 2.515 0
M  V30 936 C 54.766 22.251 -0.878 0
M  V30 937 O 55.338 21.413 0.086 0
M  V30 938 C 54.517 20.531 0.72 0
M  V30 939 C 54.034 20.759 2.001 0
M  V30 940 C 54.408 21.883 2.937 0
M  V30 941 C 53.8 21.986 4.218 0
M  V30 942 C 54.158 23.008 5.125 0
M  V30 943 N 55.06 23.948 4.765 0
M  V30 944 C 55.624 23.919 3.541 0
M  V30 945 C 55.316 22.927 2.606 0
M  V30 946 C 58.576 22.376 7.385 0
M  V30 947 C 57.829 23.404 6.809 0
M  V30 948 N 56.547 23.647 7.169 0
M  V30 949 C 55.953 22.883 8.119 0
M  V30 950 C 56.657 21.825 8.724 0
M  V30 951 C 57.99 21.545 8.379 0
M  V30 952 C 58.766 20.494 9.156 0
M  V30 953 C 60.056 20.017 8.94 0
M  V30 954 O 60.869 20.443 7.932 0
M  V30 955 C 61.154 19.576 6.896 0
M  V30 956 Se 57.982 19.671 10.587 0
M  V30 957 C 61.821 17.32 8.94 0
M  V30 958 O 61.682 18.43 9.775 0
M  V30 959 C 60.466 19.025 9.847 0
M  V30 960 C 59.514 18.679 10.797 0
M  V30 961 C 59.653 17.783 12.021 0
M  V30 962 C 58.495 17.445 12.769 0
M  V30 963 C 58.576 16.651 13.907 0
M  V30 964 N 59.777 16.166 14.31 0
M  V30 965 C 60.905 16.468 13.633 0
M  V30 966 C 60.883 17.283 12.496 0
M  V30 967 C 60.275 11.5 14.31 0
M  V30 968 C 60.524 12.749 14.9 0
M  V30 969 N 59.484 13.543 15.231 0
M  V30 970 C 58.217 13.154 15.001 0
M  V30 971 C 57.917 11.919 14.439 0
M  V30 972 C 58.964 11.052 14.051 0
M  V30 973 C 58.612 9.714 13.417 0
M  V30 974 C 59.426 8.642 13.086 0
M  V30 975 O 60.766 8.634 13.36 0
M  V30 976 C 61.235 7.899 14.454 0
M  V30 977 Se 56.869 9.376 12.962 0
M  V30 978 C 59.484 6.026 10.797 0
M  V30 979 O 59.382 6.393 12.136 0
M  V30 980 C 58.759 7.539 12.525 0
M  V30 981 C 57.389 7.73 12.352 0
M  V30 982 C 56.378 6.819 11.675 0
M  V30 983 C 55.008 7.179 11.675 0
M  V30 984 C 54.027 6.305 11.2 0
M  V30 985 N 54.349 5.1 10.668 0
M  V30 986 C 55.653 4.725 10.61 0
M  V30 987 C 56.671 5.563 11.099 0
M  V30 988 C 59.177 12.015 26.95 0
M  V30 989 C 58.407 11.699 28.087 0
M  V30 990 N 57.067 11.831 28.072 0
M  V30 991 C 56.459 12.279 26.95 0
M  V30 992 C 57.177 12.61 25.812 0
M  V30 993 C 58.583 12.455 25.755 0
M  V30 994 C 59.345 12.801 24.481 0
M  V30 995 C 60.715 12.786 24.257 0
M  V30 996 O 61.638 12.588 25.251 0
M  V30 997 C 62.561 11.537 25.337 0
M  V30 998 Se 58.422 13.109 22.92 0
M  V30 999 C 63.425 13.594 23.322 0
M  V30 1000 O 62.414 13.014 22.544 0
M  V30 1001 C 61.103 12.999 22.919 0
M  V30 1002 C 60.034 13.198 22.052 0
M  V30 1003 C 60.048 13.587 20.572 0
M  V30 1004 C 58.825 13.844 19.924 0
M  V30 1005 C 58.803 14.315 18.6 0
M  V30 1006 N 59.946 14.454 17.894 0
M  V30 1007 C 61.14 14.16 18.456 0
M  V30 1008 C 61.213 13.719 19.78 0
M  V30 1009 C 53.375 1.168 25.136 0
M  V30 1010 C 52.459 0.287 24.574 0
M  V30 1011 N 51.279 0.698 24.041 0
M  V30 1012 C 50.964 2.013 24.056 0
M  V30 1013 C 51.844 2.939 24.646 0
M  V30 1014 C 53.082 2.557 25.208 0
M  V30 1015 C 54.012 3.579 25.855 0
M  V30 1016 C 55.316 3.366 26.287 0
M  V30 1017 O 55.939 2.16 26.187 0
M  V30 1018 C 56.107 1.323 27.281 0
M  V30 1019 Se 53.492 5.305 26.153 0
M  V30 1020 C 57.47 3.762 28.519 0
M  V30 1021 O 57.213 4.446 27.338 0
M  V30 1022 C 55.939 4.497 26.849 0
M  V30 1023 C 55.14 5.644 26.892 0
M  V30 1024 C 55.433 6.974 27.554 0
M  V30 1025 C 54.591 8.091 27.295 0
M  V30 1026 C 54.825 9.318 27.928 0
M  V30 1027 N 55.858 9.516 28.778 0
M  V30 1028 C 56.686 8.48 29.051 0
M  V30 1029 C 56.495 7.223 28.461 0
M  V30 1030 C 54.473 9.612 33.125 0
M  V30 1031 C 55.294 10.185 32.146 0
M  V30 1032 N 54.818 10.714 30.995 0
M  V30 1033 C 53.484 10.707 30.779 0
M  V30 1034 C 52.613 10.126 31.715 0
M  V30 1035 C 53.067 9.538 32.924 0
M  V30 1036 C 52.122 8.774 33.845 0
M  V30 1037 C 52.415 8.201 35.083 0
M  V30 1038 O 53.653 8.274 35.645 0
M  V30 1039 C 53.924 9.296 36.552 0
M  V30 1040 Se 50.356 8.517 33.416 0
M  V30 1041 C 52.159 5.879 37.185 0
M  V30 1042 O 51.426 7.003 36.955 0
M  V30 1043 C 51.323 7.598 35.731 0
M  V30 1044 C 50.129 7.642 35.011 0
M  V30 1045 C 48.789 6.988 35.299 0
M  V30 1046 C 47.653 7.407 34.565 0
M  V30 1047 C 46.401 6.827 34.824 0
M  V30 1048 N 46.254 5.842 35.731 0
M  V30 1049 C 47.316 5.423 36.465 0
M  V30 1050 C 48.576 5.989 36.278 0
M  V30 1051 C 54.832 21.722 33.888 0
M  V30 1052 C 54.093 22.905 34.061 0
M  V30 1053 N 52.862 23.037 33.514 0
M  V30 1054 C 52.334 22.008 32.809 0
M  V30 1055 C 53.038 20.825 32.564 0
M  V30 1056 C 54.312 20.634 33.14 0
M  V30 1057 C 55.052 19.333 32.924 0
M  V30 1058 C 56.334 18.981 33.313 0
M  V30 1059 O 57.089 19.767 34.119 0
M  V30 1060 C 57.243 19.392 35.458 0
M  V30 1061 Se 54.302 18.029 31.869 0
M  V30 1062 C 59.162 17.834 32.78 0
M  V30 1063 O 57.99 17.202 33.183 0
M  V30 1064 C 56.766 17.709 32.866 0
M  V30 1065 C 55.836 17.041 32.075 0
M  V30 1066 C 55.975 15.674 31.427 0
M  V30 1067 C 54.862 15.042 30.808 0
M  V30 1068 C 54.928 13.727 30.318 0
M  V30 1069 N 56.085 13.021 30.361 0
M  V30 1070 C 57.177 13.594 30.923 0
M  V30 1071 C 57.162 14.888 31.47 0
M  V30 1072 C 44.533 20.318 41.144 0
M  V30 1073 C 43.324 19.686 41.446 0
M  V30 1074 N 42.467 19.304 40.467 0
M  V30 1075 C 42.752 19.539 39.172 0
M  V30 1076 C 43.961 20.142 38.812 0
M  V30 1077 C 44.877 20.568 39.805 0
M  V30 1078 C 46.159 21.244 39.382 0
M  V30 1079 C 47.162 21.751 40.194 0
M  V30 1080 O 47.133 21.685 41.562 0
M  V30 1081 C 48.034 20.833 42.195 0
M  V30 1082 Se 46.54 21.472 37.607 0
M  V30 1083 C 49.25 23.897 40.971 0
M  V30 1084 O 49.338 22.817 40.122 0
M  V30 1085 C 48.254 22.295 39.489 0
M  V30 1086 C 48.115 22.258 38.106 0
M  V30 1087 C 49.038 22.861 37.07 0
M  V30 1088 C 48.694 22.824 35.702 0
M  V30 1089 C 49.551 23.397 34.752 0
M  V30 1090 N 50.715 23.985 35.098 0
M  V30 1091 C 51.082 24.029 36.393 0
M  V30 1092 C 50.276 23.478 37.387 0
M  V30 1093 C 50.349 28.46 34.896 0
M  V30 1094 C 51.096 27.284 34.738 0
M  V30 1095 N 50.825 26.395 33.744 0
M  V30 1096 C 49.814 26.66 32.881 0
M  V30 1097 C 49.023 27.806 33.01 0
M  V30 1098 C 49.287 28.769 34.018 0
M  V30 1099 C 48.422 30.003 34.133 0
M  V30 1100 C 48.481 31.025 35.069 0
M  V30 1101 O 49.389 31.025 36.091 0
M  V30 1102 C 50.562 31.774 35.976 0
M  V30 1103 Se 47.097 30.327 32.902 0
M  V30 1104 C 46.833 32.95 36.912 0
M  V30 1105 O 47.412 33.148 35.659 0
M  V30 1106 C 47.565 32.068 34.853 0
M  V30 1107 C 46.716 31.877 33.773 0
M  V30 1108 C 45.602 32.788 33.313 0
M  V30 1109 C 44.782 32.399 32.233 0
M  V30 1110 C 43.785 33.266 31.758 0
M  V30 1111 N 43.566 34.464 32.348 0
M  V30 1112 C 44.32 34.868 33.399 0
M  V30 1113 C 45.338 34.045 33.903 0
M  V30 1114 C 44.686 38.086 29.282 0
M  V30 1115 C 43.99 37.535 30.361 0
M  V30 1116 N 43.346 36.352 30.232 0
M  V30 1117 C 43.353 35.669 29.066 0
M  V30 1118 C 44.042 36.183 27.957 0
M  V30 1119 C 44.723 37.418 28.044 0
M  V30 1120 C 45.302 38.057 26.793 0
M  V30 1121 C 46.078 39.211 26.748 0
M  V30 1122 O 46.357 39.916 27.871 0
M  V30 1123 C 45.837 41.195 28.072 0
M  V30 1124 Se 45.06 37.337 25.131 0
M  V30 1125 C 46.884 41.974 25.481 0
M  V30 1126 O 47.25 40.673 25.179 0
M  V30 1127 C 46.503 39.578 25.452 0
M  V30 1128 C 46.064 38.711 24.445 0
M  V30 1129 C 46.269 38.807 22.947 0
M  V30 1130 C 45.859 37.719 22.141 0
M  V30 1131 C 45.917 37.8 20.745 0
M  V30 1132 N 46.349 38.924 20.111 0
M  V30 1133 C 46.738 39.997 20.846 0
M  V30 1134 C 46.701 39.953 22.256 0
M  V30 1135 C 43.148 41.702 18.355 0
M  V30 1136 C 44.437 41.202 18.182 0
M  V30 1137 N 44.679 39.872 18.125 0
M  V30 1138 C 43.668 38.983 18.254 0
M  V30 1139 C 42.35 39.438 18.413 0
M  V30 1140 C 42.049 40.82 18.456 0
M  V30 1141 C 40.643 41.276 18.801 0
M  V30 1142 C 40.166 42.576 18.873 0
M  V30 1143 O 40.943 43.656 18.6 0
M  V30 1144 C 40.95 44.274 17.347 0
M  V30 1145 Se 39.331 40.07 19.229 0
M  V30 1146 C 38.46 44.685 20.457 0
M  V30 1147 O 38.189 43.877 19.363 0
M  V30 1148 C 38.804 42.672 19.233 0
M  V30 1149 C 38.174 41.459 19.478 0
M  V30 1150 C 36.76 41.187 19.967 0
M  V30 1151 C 36.262 39.865 19.996 0
M  V30 1152 C 34.98 39.578 20.471 0
M  V30 1153 N 34.159 40.563 20.903 0
M  V30 1154 C 34.592 41.849 20.918 0
M  V30 1155 C 35.874 42.179 20.471 0
M  V30 1156 C 45.683 37.058 6.968 0
M  V30 1157 C 45.221 36.257 5.917 0
M  V30 1158 N 44.569 35.088 6.147 0
M  V30 1159 C 44.349 34.677 7.414 0
M  V30 1160 C 44.789 35.441 8.494 0
M  V30 1161 C 45.478 36.661 8.321 0
M  V30 1162 C 46.034 37.388 9.523 0
M  V30 1163 C 46.804 38.549 9.573 0
M  V30 1164 O 47.324 39.093 8.436 0
M  V30 1165 C 46.906 40.276 7.86 0
M  V30 1166 Se 45.5 36.903 11.193 0
M  V30 1167 C 49.082 39.96 11.431 0
M  V30 1168 O 47.719 40.159 11.171 0
M  V30 1169 C 46.965 39.071 10.869 0
M  V30 1170 C 46.379 38.329 11.891 0
M  V30 1171 C 46.503 38.491 13.388 0
M  V30 1172 C 45.859 37.572 14.252 0
M  V30 1173 C 45.895 37.726 15.634 0
M  V30 1174 N 46.481 38.799 16.196 0
M  V30 1175 C 47.097 39.718 15.418 0
M  V30 1176 C 47.126 39.593 14.036 0
M  V30 1177 C 50.613 38.263 18.83 0
M  V30 1178 C 49.389 38.902 18.571 0
M  V30 1179 N 48.298 38.197 18.197 0
M  V30 1180 C 48.335 36.852 18.096 0
M  V30 1181 C 49.536 36.168 18.312 0
M  V30 1182 C 50.708 36.852 18.715 0
M  V30 1183 C 51.961 36.073 19.075 0
M  V30 1184 C 53.155 36.58 19.579 0
M  V30 1185 O 53.382 37.925 19.665 0
M  V30 1186 C 54.254 38.52 18.758 0
M  V30 1187 Se 51.975 34.236 19.075 0
M  V30 1188 C 55.455 36.455 21.767 0
M  V30 1189 O 55.316 35.904 20.486 0
M  V30 1190 C 54.1 35.61 19.953 0
M  V30 1191 C 53.66 34.295 19.795 0
M  V30 1192 C 54.444 33.009 19.996 0
M  V30 1193 C 53.88 31.774 19.593 0
M  V30 1194 C 54.62 30.598 19.78 0
M  V30 1195 N 55.851 30.591 20.342 0
M  V30 1196 C 56.415 31.745 20.745 0
M  V30 1197 C 55.726 32.957 20.586 0
M  V30 1198 C 58.056 29.702 16.311 0
M  V30 1199 C 57.975 29.768 17.707 0
M  V30 1200 N 57.001 29.092 18.369 0
M  V30 1201 C 56.1 28.357 17.664 0
M  V30 1202 C 56.166 28.24 16.268 0
M  V30 1203 C 57.162 28.938 15.533 0
M  V30 1204 C 57.125 28.945 14.007 0
M  V30 1205 C 57.917 29.658 13.115 0
M  V30 1206 O 58.752 30.643 13.532 0
M  V30 1207 C 60.092 30.385 13.82 0
M  V30 1208 Se 56.158 27.689 13.093 0
M  V30 1209 C 58.334 31.157 10.38 0
M  V30 1210 O 58.547 29.834 10.754 0
M  V30 1211 C 57.836 29.261 11.762 0
M  V30 1212 C 56.935 28.225 11.531 0
M  V30 1213 C 56.554 27.608 10.207 0
M  V30 1214 C 55.375 26.829 10.092 0
M  V30 1215 C 55.038 26.167 8.897 0
M  V30 1216 N 55.887 26.175 7.846 0
M  V30 1217 C 57.045 26.873 7.918 0
M  V30 1218 C 57.411 27.593 9.07 0
M  V30 1219 C 61.513 18.922 17.606 0
M  V30 1220 C 61.404 17.643 17.045 0
M  V30 1221 N 60.187 17.055 16.93 0
M  V30 1222 C 59.067 17.687 17.333 0
M  V30 1223 C 59.133 18.966 17.909 0
M  V30 1224 C 60.371 19.613 18.067 0
M  V30 1225 C 60.393 21.002 18.686 0
M  V30 1226 C 61.484 21.766 19.089 0
M  V30 1227 O 62.751 21.266 19.06 0
M  V30 1228 C 63.601 21.457 17.981 0
M  V30 1229 Se 58.832 21.942 18.823 0
M  V30 1230 C 63.001 24.617 19.06 0
M  V30 1231 O 62.085 23.97 19.924 0
M  V30 1232 C 61.162 23.074 19.507 0
M  V30 1233 C 59.799 23.375 19.449 0
M  V30 1234 C 59.089 24.676 19.78 0
M  V30 1235 C 57.682 24.727 19.809 0
M  V30 1236 C 56.993 25.918 20.111 0
M  V30 1237 N 57.675 27.064 20.356 0
M  V30 1238 C 59.03 27.064 20.299 0
M  V30 1239 C 59.755 25.903 20.011 0
M  V30 1240 C 54.657 26.961 31.384 0
M  V30 1241 C 53.917 26.381 32.42 0
M  V30 1242 N 52.869 25.572 32.146 0
M  V30 1243 C 52.525 25.33 30.851 0
M  V30 1244 C 53.235 25.866 29.771 0
M  V30 1245 C 54.349 26.719 30.016 0
M  V30 1246 C 55.045 27.395 28.848 0
M  V30 1247 C 56.107 28.291 28.864 0
M  V30 1248 O 56.613 28.769 30.03 0
M  V30 1249 C 57.873 28.379 30.477 0
M  V30 1250 Se 54.591 26.939 27.135 0
M  V30 1251 C 57.448 30.856 27.641 0
M  V30 1252 O 57.631 29.496 27.367 0
M  V30 1253 C 56.605 28.622 27.583 0
M  V30 1254 C 55.924 28.027 26.518 0
M  V30 1255 C 56.129 28.262 25.035 0
M  V30 1256 C 55.257 27.689 24.085 0
M  V30 1257 C 55.477 27.865 22.717 0
M  V30 1258 N 56.488 28.636 22.242 0
M  V30 1259 C 57.345 29.21 23.106 0
M  V30 1260 C 57.191 29.033 24.488 0
M  V30 1261 Pd 22.229 10.659 2.227 0
M  V30 1262 Pd 14.78 15.233 14.108 0
M  V30 1263 Pd 16.772 17.619 28.424 0
M  V30 1264 Pd 19.436 4.465 22.68 0
M  V30 1265 Pd 25.816 -0.883 10.65 0
M  V30 1266 Pd 39.747 -1.625 6.457 0
M  V30 1267 Pd 35.882 8.89 -2.943 0
M  V30 1268 Pd 38.589 23.122 -3.719 0
M  V30 1269 Pd 24.633 25.033 0.416 0
M  V30 1270 Pd 18.182 29.415 12.733 0
M  V30 1271 Pd 21.629 31.509 26.911 0
M  V30 1272 Pd 30.896 28.666 37.964 0
M  V30 1273 Pd 26.922 14.648 38.504 0
M  V30 1274 Pd 30.56 1.883 32.027 0
M  V30 1275 Pd 36.098 -4.848 20.155 0
M  V30 1276 Pd 49.683 -0.374 23.487 0
M  V30 1277 Pd 52.992 3.942 9.802 0
M  V30 1278 Pd 49.437 13.773 -0.626 0
M  V30 1279 Pd 55.474 25.08 6.317 0
M  V30 1280 Pd 43.978 34.084 4.53 0
M  V30 1281 Pd 29.818 36.581 7.827 0
M  V30 1282 Pd 32.43 40.123 21.704 0
M  V30 1283 Pd 42.099 35.608 31.592 0
M  V30 1284 Pd 51.859 24.735 33.647 0
M  V30 1285 Pd 40.757 18.38 40.977 0
M  V30 1286 Pd 44.406 5.087 35.879 0
M  V30 1287 Pd 56.007 11.252 29.583 0
M  V30 1288 Pd 59.991 15.264 16.063 0
M  V30 1289 Pd 56.766 28.855 20.336 0
M  V30 1290 Pd 46.502 39.027 18.135 0
M  V30 END ATOM
M  V30 BEGIN BOND
M  V30 1 1 1 2
M  V30 2 2 1 6
M  V30 3 1 2 3
M  V30 4 1 3 1267
M  V30 5 1 3 4
M  V30 6 2 4 5
M  V30 7 1 5 6
M  V30 8 1 6 7
M  V30 9 2 7 8
M  V30 10 1 7 11
M  V30 11 1 8 9
M  V30 12 1 8 14
M  V30 13 1 9 10
M  V30 14 1 11 15
M  V30 15 1 12 13
M  V30 16 1 13 14
M  V30 17 2 14 15
M  V30 18 1 15 16
M  V30 19 1 16 21
M  V30 20 2 16 17
M  V30 21 1 17 18
M  V30 22 1 18 19
M  V30 23 1 19 20
M  V30 24 1 19 1261
M  V30 25 2 20 21
M  V30 26 2 22 27
M  V30 27 1 22 23
M  V30 28 1 23 24
M  V30 29 1 24 25
M  V30 30 1 24 1262
M  V30 31 2 25 26
M  V30 32 1 26 27
M  V30 33 1 27 28
M  V30 34 2 28 29
M  V30 35 1 28 32
M  V30 36 1 29 35
M  V30 37 1 29 30
M  V30 38 1 30 31
M  V30 39 1 32 36
M  V30 40 1 33 34
M  V30 41 1 34 35
M  V30 42 2 35 36
M  V30 43 1 36 37
M  V30 44 1 37 42
M  V30 45 2 37 38
M  V30 46 1 38 39
M  V30 47 1 39 40
M  V30 48 1 40 1261
M  V30 49 1 40 41
M  V30 50 2 41 42
M  V30 51 1 43 44
M  V30 52 2 43 48
M  V30 53 1 44 45
M  V30 54 1 45 1262
M  V30 55 1 45 46
M  V30 56 2 46 47
M  V30 57 1 47 48
M  V30 58 1 48 49
M  V30 59 2 49 50
M  V30 60 1 49 53
M  V30 61 1 50 51
M  V30 62 1 50 56
M  V30 63 1 51 52
M  V30 64 1 53 57
M  V30 65 1 54 55
M  V30 66 1 55 56
M  V30 67 2 56 57
M  V30 68 1 57 58
M  V30 69 2 58 59
M  V30 70 1 58 63
M  V30 71 1 59 60
M  V30 72 1 60 61
M  V30 73 1 61 62
M  V30 74 1 61 1263
M  V30 75 2 62 63
M  V30 76 2 64 69
M  V30 77 1 64 65
M  V30 78 1 65 66
M  V30 79 1 66 67
M  V30 80 1 66 1273
M  V30 81 2 67 68
M  V30 82 1 68 69
M  V30 83 1 69 70
M  V30 84 1 70 74
M  V30 85 2 70 71
M  V30 86 1 71 77
M  V30 87 1 71 72
M  V30 88 1 72 73
M  V30 89 1 74 78
M  V30 90 1 75 76
M  V30 91 1 76 77
M  V30 92 2 77 78
M  V30 93 1 78 79
M  V30 94 2 79 80
M  V30 95 1 79 84
M  V30 96 1 80 81
M  V30 97 1 81 82
M  V30 98 1 82 1263
M  V30 99 1 82 83
M  V30 100 2 83 84
M  V30 101 2 85 90
M  V30 102 1 85 86
M  V30 103 1 86 87
M  V30 104 1 87 88
M  V30 105 1 87 1263
M  V30 106 2 88 89
M  V30 107 1 89 90
M  V30 108 1 90 91
M  V30 109 1 91 95
M  V30 110 2 91 92
M  V30 111 1 92 98
M  V30 112 1 92 93
M  V30 113 1 93 94
M  V30 114 1 95 99
M  V30 115 1 96 97
M  V30 116 1 97 98
M  V30 117 2 98 99
M  V30 118 1 99 100
M  V30 119 2 100 101
M  V30 120 1 100 105
M  V30 121 1 101 102
M  V30 122 1 102 103
M  V30 123 1 103 1264
M  V30 124 1 103 104
M  V30 125 2 104 105
M  V30 126 1 106 107
M  V30 127 2 106 111
M  V30 128 1 107 108
M  V30 129 1 108 1262
M  V30 130 1 108 109
M  V30 131 2 109 110
M  V30 132 1 110 111
M  V30 133 1 111 112
M  V30 134 2 112 113
M  V30 135 1 112 116
M  V30 136 1 113 114
M  V30 137 1 113 119
M  V30 138 1 114 115
M  V30 139 1 116 120
M  V30 140 1 117 118
M  V30 141 1 118 119
M  V30 142 2 119 120
M  V30 143 1 120 121
M  V30 144 2 121 122
M  V30 145 1 121 126
M  V30 146 1 122 123
M  V30 147 1 123 124
M  V30 148 1 124 125
M  V30 149 1 124 1264
M  V30 150 2 125 126
M  V30 151 1 127 128
M  V30 152 2 127 132
M  V30 153 1 128 129
M  V30 154 1 129 1265
M  V30 155 1 129 130
M  V30 156 2 130 131
M  V30 157 1 131 132
M  V30 158 1 132 133
M  V30 159 2 133 134
M  V30 160 1 133 137
M  V30 161 1 134 135
M  V30 162 1 134 140
M  V30 163 1 135 136
M  V30 164 1 137 141
M  V30 165 1 138 139
M  V30 166 1 139 140
M  V30 167 2 140 141
M  V30 168 1 141 142
M  V30 169 2 142 143
M  V30 170 1 142 147
M  V30 171 1 143 144
M  V30 172 1 144 145
M  V30 173 1 145 146
M  V30 174 1 145 1264
M  V30 175 2 146 147
M  V30 176 1 148 149
M  V30 177 2 148 153
M  V30 178 1 149 150
M  V30 179 1 150 1261
M  V30 180 1 150 151
M  V30 181 2 151 152
M  V30 182 1 152 153
M  V30 183 1 153 154
M  V30 184 2 154 155
M  V30 185 1 154 158
M  V30 186 1 155 156
M  V30 187 1 155 161
M  V30 188 1 156 157
M  V30 189 1 158 162
M  V30 190 1 159 160
M  V30 191 1 160 161
M  V30 192 2 161 162
M  V30 193 1 162 163
M  V30 194 1 163 168
M  V30 195 2 163 164
M  V30 196 1 164 165
M  V30 197 1 165 166
M  V30 198 1 166 167
M  V30 199 1 166 1265
M  V30 200 2 167 168
M  V30 201 2 169 174
M  V30 202 1 169 170
M  V30 203 1 170 171
M  V30 204 1 171 172
M  V30 205 1 171 1275
M  V30 206 2 172 173
M  V30 207 1 173 174
M  V30 208 1 174 175
M  V30 209 1 175 179
M  V30 210 2 175 176
M  V30 211 1 176 182
M  V30 212 1 176 177
M  V30 213 1 177 178
M  V30 214 1 179 183
M  V30 215 1 180 181
M  V30 216 1 181 182
M  V30 217 2 182 183
M  V30 218 1 183 184
M  V30 219 1 184 189
M  V30 220 2 184 185
M  V30 221 1 185 186
M  V30 222 1 186 187
M  V30 223 1 187 1265
M  V30 224 1 187 188
M  V30 225 2 188 189
M  V30 226 2 190 195
M  V30 227 1 190 191
M  V30 228 1 191 192
M  V30 229 1 192 193
M  V30 230 1 192 1265
M  V30 231 2 193 194
M  V30 232 1 194 195
M  V30 233 1 195 196
M  V30 234 2 196 197
M  V30 235 1 196 200
M  V30 236 1 197 198
M  V30 237 1 197 203
M  V30 238 1 198 199
M  V30 239 1 200 204
M  V30 240 1 201 202
M  V30 241 1 202 203
M  V30 242 2 203 204
M  V30 243 1 204 205
M  V30 244 1 205 210
M  V30 245 2 205 206
M  V30 246 1 206 207
M  V30 247 1 207 208
M  V30 248 1 208 209
M  V30 249 1 208 1266
M  V30 250 2 209 210
M  V30 251 2 211 216
M  V30 252 1 211 212
M  V30 253 1 212 213
M  V30 254 1 213 214
M  V30 255 1 213 1266
M  V30 256 2 214 215
M  V30 257 1 215 216
M  V30 258 1 216 217
M  V30 259 2 217 218
M  V30 260 1 217 221
M  V30 261 1 218 224
M  V30 262 1 218 219
M  V30 263 1 219 220
M  V30 264 1 221 225
M  V30 265 1 222 223
M  V30 266 1 223 224
M  V30 267 2 224 225
M  V30 268 1 225 226
M  V30 269 1 226 231
M  V30 270 2 226 227
M  V30 271 1 227 228
M  V30 272 1 228 229
M  V30 273 1 229 230
M  V30 274 1 229 1267
M  V30 275 2 230 231
M  V30 276 1 232 233
M  V30 277 2 232 237
M  V30 278 1 233 234
M  V30 279 1 234 1266
M  V30 280 1 234 235
M  V30 281 2 235 236
M  V30 282 1 236 237
M  V30 283 1 237 238
M  V30 284 2 238 239
M  V30 285 1 238 242
M  V30 286 1 239 240
M  V30 287 1 239 245
M  V30 288 1 240 241
M  V30 289 1 242 246
M  V30 290 1 243 244
M  V30 291 1 244 245
M  V30 292 2 245 246
M  V30 293 1 246 247
M  V30 294 2 247 248
M  V30 295 1 247 252
M  V30 296 1 248 249
M  V30 297 1 249 250
M  V30 298 1 250 251
M  V30 299 1 250 1275
M  V30 300 2 251 252
M  V30 301 2 253 258
M  V30 302 1 253 254
M  V30 303 1 254 255
M  V30 304 1 255 256
M  V30 305 1 255 1274
M  V30 306 2 256 257
M  V30 307 1 257 258
M  V30 308 1 258 259
M  V30 309 1 259 263
M  V30 310 2 259 260
M  V30 311 1 260 266
M  V30 312 1 260 261
M  V30 313 1 261 262
M  V30 314 1 263 267
M  V30 315 1 264 265
M  V30 316 1 265 266
M  V30 317 2 266 267
M  V30 318 1 267 268
M  V30 319 2 268 269
M  V30 320 1 268 273
M  V30 321 1 269 270
M  V30 322 1 270 271
M  V30 323 1 271 1275
M  V30 324 1 271 272
M  V30 325 2 272 273
M  V30 326 1 274 275
M  V30 327 2 274 279
M  V30 328 1 275 276
M  V30 329 1 276 1264
M  V30 330 1 276 277
M  V30 331 2 277 278
M  V30 332 1 278 279
M  V30 333 1 279 280
M  V30 334 1 280 284
M  V30 335 2 280 281
M  V30 336 1 281 282
M  V30 337 1 281 287
M  V30 338 1 282 283
M  V30 339 1 284 288
M  V30 340 1 285 286
M  V30 341 1 286 287
M  V30 342 2 287 288
M  V30 343 1 288 289
M  V30 344 2 289 290
M  V30 345 1 289 294
M  V30 346 1 290 291
M  V30 347 1 291 292
M  V30 348 1 292 293
M  V30 349 1 292 1274
M  V30 350 2 293 294
M  V30 351 1 295 296
M  V30 352 2 295 300
M  V30 353 1 296 297
M  V30 354 1 297 1274
M  V30 355 1 297 298
M  V30 356 2 298 299
M  V30 357 1 299 300
M  V30 358 1 300 301
M  V30 359 1 301 305
M  V30 360 2 301 302
M  V30 361 1 302 303
M  V30 362 1 302 308
M  V30 363 1 303 304
M  V30 364 1 305 309
M  V30 365 1 306 307
M  V30 366 1 307 308
M  V30 367 2 308 309
M  V30 368 1 309 310
M  V30 369 2 310 311
M  V30 370 1 310 315
M  V30 371 1 311 312
M  V30 372 1 312 313
M  V30 373 1 313 1273
M  V30 374 1 313 314
M  V30 375 2 314 315
M  V30 376 2 316 321
M  V30 377 1 316 317
M  V30 378 1 317 318
M  V30 379 1 318 1273
M  V30 380 1 318 319
M  V30 381 2 319 320
M  V30 382 1 320 321
M  V30 383 1 321 322
M  V30 384 1 322 326
M  V30 385 2 322 323
M  V30 386 1 323 329
M  V30 387 1 323 324
M  V30 388 1 324 325
M  V30 389 1 326 330
M  V30 390 1 327 328
M  V30 391 1 328 329
M  V30 392 2 329 330
M  V30 393 1 330 331
M  V30 394 2 331 332
M  V30 395 1 331 336
M  V30 396 1 332 333
M  V30 397 1 333 334
M  V30 398 1 334 1285
M  V30 399 1 334 335
M  V30 400 2 335 336
M  V30 401 2 337 342
M  V30 402 1 337 338
M  V30 403 1 338 339
M  V30 404 1 339 340
M  V30 405 1 339 1285
M  V30 406 2 340 341
M  V30 407 1 341 342
M  V30 408 1 342 343
M  V30 409 1 343 347
M  V30 410 2 343 344
M  V30 411 1 344 350
M  V30 412 1 344 345
M  V30 413 1 345 346
M  V30 414 1 347 351
M  V30 415 1 348 349
M  V30 416 1 349 350
M  V30 417 2 350 351
M  V30 418 1 351 352
M  V30 419 2 352 353
M  V30 420 1 352 357
M  V30 421 1 353 354
M  V30 422 1 354 355
M  V30 423 1 355 1286
M  V30 424 1 355 356
M  V30 425 2 356 357
M  V30 426 2 358 363
M  V30 427 1 358 359
M  V30 428 1 359 360
M  V30 429 1 360 361
M  V30 430 1 360 1286
M  V30 431 2 361 362
M  V30 432 1 362 363
M  V30 433 1 363 364
M  V30 434 1 364 368
M  V30 435 2 364 365
M  V30 436 1 365 371
M  V30 437 1 365 366
M  V30 438 1 366 367
M  V30 439 1 368 372
M  V30 440 1 369 370
M  V30 441 1 370 371
M  V30 442 2 371 372
M  V30 443 1 372 373
M  V30 444 2 373 374
M  V30 445 1 373 378
M  V30 446 1 374 375
M  V30 447 1 375 376
M  V30 448 1 376 1274
M  V30 449 1 376 377
M  V30 450 2 377 378
M  V30 451 2 379 384
M  V30 452 1 379 380
M  V30 453 1 380 381
M  V30 454 1 381 382
M  V30 455 1 381 1286
M  V30 456 2 382 383
M  V30 457 1 383 384
M  V30 458 1 384 385
M  V30 459 1 385 389
M  V30 460 2 385 386
M  V30 461 1 386 392
M  V30 462 1 386 387
M  V30 463 1 387 388
M  V30 464 1 389 393
M  V30 465 1 390 391
M  V30 466 1 391 392
M  V30 467 2 392 393
M  V30 468 1 393 394
M  V30 469 2 394 395
M  V30 470 1 394 399
M  V30 471 1 395 396
M  V30 472 1 396 397
M  V30 473 1 397 1276
M  V30 474 1 397 398
M  V30 475 2 398 399
M  V30 476 2 400 405
M  V30 477 1 400 401
M  V30 478 1 401 402
M  V30 479 1 402 403
M  V30 480 1 402 1276
M  V30 481 2 403 404
M  V30 482 1 404 405
M  V30 483 1 405 406
M  V30 484 1 406 410
M  V30 485 2 406 407
M  V30 486 1 407 413
M  V30 487 1 407 408
M  V30 488 1 408 409
M  V30 489 1 410 414
M  V30 490 1 411 412
M  V30 491 1 412 413
M  V30 492 2 413 414
M  V30 493 1 414 415
M  V30 494 2 415 416
M  V30 495 1 415 420
M  V30 496 1 416 417
M  V30 497 1 417 418
M  V30 498 1 418 1275
M  V30 499 1 418 419
M  V30 500 2 419 420
M  V30 501 1 421 422
M  V30 502 2 421 426
M  V30 503 1 422 423
M  V30 504 1 423 1277
M  V30 505 1 423 424
M  V30 506 2 424 425
M  V30 507 1 425 426
M  V30 508 1 426 427
M  V30 509 2 427 428
M  V30 510 1 427 431
M  V30 511 1 428 429
M  V30 512 1 428 434
M  V30 513 1 429 430
M  V30 514 1 431 435
M  V30 515 1 432 433
M  V30 516 1 433 434
M  V30 517 2 434 435
M  V30 518 1 435 436
M  V30 519 2 436 437
M  V30 520 1 436 441
M  V30 521 1 437 438
M  V30 522 1 438 439
M  V30 523 1 439 440
M  V30 524 1 439 1276
M  V30 525 2 440 441
M  V30 526 1 442 443
M  V30 527 2 442 447
M  V30 528 1 443 444
M  V30 529 1 444 1266
M  V30 530 1 444 445
M  V30 531 2 445 446
M  V30 532 1 446 447
M  V30 533 1 447 448
M  V30 534 2 448 449
M  V30 535 1 448 452
M  V30 536 1 449 450
M  V30 537 1 449 455
M  V30 538 1 450 451
M  V30 539 1 452 456
M  V30 540 1 453 454
M  V30 541 1 454 455
M  V30 542 2 455 456
M  V30 543 1 456 457
M  V30 544 1 457 462
M  V30 545 2 457 458
M  V30 546 1 458 459
M  V30 547 1 459 460
M  V30 548 1 460 461
M  V30 549 1 460 1277
M  V30 550 2 461 462
M  V30 551 2 463 468
M  V30 552 1 463 464
M  V30 553 1 464 465
M  V30 554 1 465 466
M  V30 555 1 465 1277
M  V30 556 2 466 467
M  V30 557 1 467 468
M  V30 558 1 468 469
M  V30 559 2 469 470
M  V30 560 1 469 473
M  V30 561 1 470 476
M  V30 562 1 470 471
M  V30 563 1 471 472
M  V30 564 1 473 477
M  V30 565 1 474 475
M  V30 566 1 475 476
M  V30 567 2 476 477
M  V30 568 1 477 478
M  V30 569 1 478 483
M  V30 570 2 478 479
M  V30 571 1 479 480
M  V30 572 1 480 481
M  V30 573 1 481 1278
M  V30 574 1 481 482
M  V30 575 2 482 483
M  V30 576 1 484 485
M  V30 577 2 484 489
M  V30 578 1 485 486
M  V30 579 1 486 1278
M  V30 580 1 486 487
M  V30 581 2 487 488
M  V30 582 1 488 489
M  V30 583 1 489 490
M  V30 584 2 490 491
M  V30 585 1 490 494
M  V30 586 1 491 492
M  V30 587 1 491 497
M  V30 588 1 492 493
M  V30 589 1 494 498
M  V30 590 1 495 496
M  V30 591 1 496 497
M  V30 592 2 497 498
M  V30 593 1 498 499
M  V30 594 1 499 504
M  V30 595 2 499 500
M  V30 596 1 500 501
M  V30 597 1 501 502
M  V30 598 1 502 503
M  V30 599 1 502 1267
M  V30 600 2 503 504
M  V30 601 1 505 506
M  V30 602 2 505 510
M  V30 603 1 506 507
M  V30 604 1 507 1268
M  V30 605 1 507 508
M  V30 606 2 508 509
M  V30 607 1 509 510
M  V30 608 1 510 511
M  V30 609 2 511 512
M  V30 610 1 511 515
M  V30 611 1 512 513
M  V30 612 1 512 518
M  V30 613 1 513 514
M  V30 614 1 515 519
M  V30 615 1 516 517
M  V30 616 1 517 518
M  V30 617 2 518 519
M  V30 618 1 519 520
M  V30 619 1 520 525
M  V30 620 2 520 521
M  V30 621 1 521 522
M  V30 622 1 522 523
M  V30 623 1 523 524
M  V30 624 1 523 1278
M  V30 625 2 524 525
M  V30 626 1 526 527
M  V30 627 2 526 531
M  V30 628 1 527 528
M  V30 629 1 528 1267
M  V30 630 1 528 529
M  V30 631 2 529 530
M  V30 632 1 530 531
M  V30 633 1 531 532
M  V30 634 2 532 533
M  V30 635 1 532 536
M  V30 636 1 533 534
M  V30 637 1 533 539
M  V30 638 1 534 535
M  V30 639 1 536 540
M  V30 640 1 537 538
M  V30 641 1 538 539
M  V30 642 2 539 540
M  V30 643 1 540 541
M  V30 644 1 541 546
M  V30 645 2 541 542
M  V30 646 1 542 543
M  V30 647 1 543 544
M  V30 648 1 544 545
M  V30 649 1 544 1268
M  V30 650 2 545 546
M  V30 651 1 547 548
M  V30 652 2 547 552
M  V30 653 1 548 549
M  V30 654 1 549 1268
M  V30 655 1 549 550
M  V30 656 2 550 551
M  V30 657 1 551 552
M  V30 658 1 552 553
M  V30 659 2 553 554
M  V30 660 1 553 557
M  V30 661 1 554 555
M  V30 662 1 554 560
M  V30 663 1 555 556
M  V30 664 1 557 561
M  V30 665 1 558 559
M  V30 666 1 559 560
M  V30 667 2 560 561
M  V30 668 1 561 562
M  V30 669 1 562 567
M  V30 670 2 562 563
M  V30 671 1 563 564
M  V30 672 1 564 565
M  V30 673 1 565 566
M  V30 674 1 565 1269
M  V30 675 2 566 567
M  V30 676 1 568 569
M  V30 677 2 568 573
M  V30 678 1 569 570
M  V30 679 1 570 1269
M  V30 680 1 570 571
M  V30 681 2 571 572
M  V30 682 1 572 573
M  V30 683 1 573 574
M  V30 684 2 574 575
M  V30 685 1 574 578
M  V30 686 1 575 576
M  V30 687 1 575 581
M  V30 688 1 576 577
M  V30 689 1 578 582
M  V30 690 1 579 580
M  V30 691 1 580 581
M  V30 692 2 581 582
M  V30 693 1 582 583
M  V30 694 1 583 588
M  V30 695 2 583 584
M  V30 696 1 584 585
M  V30 697 1 585 586
M  V30 698 1 586 587
M  V30 699 1 586 1261
M  V30 700 2 587 588
M  V30 701 2 589 594
M  V30 702 1 589 590
M  V30 703 1 590 591
M  V30 704 1 591 592
M  V30 705 1 591 1270
M  V30 706 2 592 593
M  V30 707 1 593 594
M  V30 708 1 594 595
M  V30 709 2 595 596
M  V30 710 1 595 599
M  V30 711 1 596 602
M  V30 712 1 596 597
M  V30 713 1 597 598
M  V30 714 1 599 603
M  V30 715 1 600 601
M  V30 716 1 601 602
M  V30 717 2 602 603
M  V30 718 1 603 604
M  V30 719 1 604 609
M  V30 720 2 604 605
M  V30 721 1 605 606
M  V30 722 1 606 607
M  V30 723 1 607 1269
M  V30 724 1 607 608
M  V30 725 2 608 609
M  V30 726 2 610 615
M  V30 727 1 610 611
M  V30 728 1 611 612
M  V30 729 1 612 613
M  V30 730 1 612 1262
M  V30 731 2 613 614
M  V30 732 1 614 615
M  V30 733 1 615 616
M  V30 734 2 616 617
M  V30 735 1 616 620
M  V30 736 1 617 618
M  V30 737 1 617 623
M  V30 738 1 618 619
M  V30 739 1 620 624
M  V30 740 1 621 622
M  V30 741 1 622 623
M  V30 742 2 623 624
M  V30 743 1 624 625
M  V30 744 1 625 630
M  V30 745 2 625 626
M  V30 746 1 626 627
M  V30 747 1 627 628
M  V30 748 1 628 629
M  V30 749 1 628 1270
M  V30 750 2 629 630
M  V30 751 1 631 632
M  V30 752 2 631 636
M  V30 753 1 632 633
M  V30 754 1 633 1270
M  V30 755 1 633 634
M  V30 756 2 634 635
M  V30 757 1 635 636
M  V30 758 1 636 637
M  V30 759 2 637 638
M  V30 760 1 637 641
M  V30 761 1 638 639
M  V30 762 1 638 644
M  V30 763 1 639 640
M  V30 764 1 641 645
M  V30 765 1 642 643
M  V30 766 1 643 644
M  V30 767 2 644 645
M  V30 768 1 645 646
M  V30 769 2 646 647
M  V30 770 1 646 651
M  V30 771 1 647 648
M  V30 772 1 648 649
M  V30 773 1 649 650
M  V30 774 1 649 1271
M  V30 775 2 650 651
M  V30 776 2 652 657
M  V30 777 1 652 653
M  V30 778 1 653 654
M  V30 779 1 654 655
M  V30 780 1 654 1263
M  V30 781 2 655 656
M  V30 782 1 656 657
M  V30 783 1 657 658
M  V30 784 1 658 662
M  V30 785 2 658 659
M  V30 786 1 659 665
M  V30 787 1 659 660
M  V30 788 1 660 661
M  V30 789 1 662 666
M  V30 790 1 663 664
M  V30 791 1 664 665
M  V30 792 2 665 666
M  V30 793 1 666 667
M  V30 794 2 667 668
M  V30 795 1 667 672
M  V30 796 1 668 669
M  V30 797 1 669 670
M  V30 798 1 670 1271
M  V30 799 1 670 671
M  V30 800 2 671 672
M  V30 801 1 673 674
M  V30 802 2 673 678
M  V30 803 1 674 675
M  V30 804 1 675 1271
M  V30 805 1 675 676
M  V30 806 2 676 677
M  V30 807 1 677 678
M  V30 808 1 678 679
M  V30 809 1 679 683
M  V30 810 2 679 680
M  V30 811 1 680 681
M  V30 812 1 680 686
M  V30 813 1 681 682
M  V30 814 1 683 687
M  V30 815 1 684 685
M  V30 816 1 685 686
M  V30 817 2 686 687
M  V30 818 1 687 688
M  V30 819 2 688 689
M  V30 820 1 688 693
M  V30 821 1 689 690
M  V30 822 1 690 691
M  V30 823 1 691 692
M  V30 824 1 691 1272
M  V30 825 2 692 693
M  V30 826 2 694 699
M  V30 827 1 694 695
M  V30 828 1 695 696
M  V30 829 1 696 697
M  V30 830 1 696 1272
M  V30 831 2 697 698
M  V30 832 1 698 699
M  V30 833 1 699 700
M  V30 834 1 700 704
M  V30 835 2 700 701
M  V30 836 1 701 707
M  V30 837 1 701 702
M  V30 838 1 702 703
M  V30 839 1 704 708
M  V30 840 1 705 706
M  V30 841 1 706 707
M  V30 842 2 707 708
M  V30 843 1 708 709
M  V30 844 2 709 710
M  V30 845 1 709 714
M  V30 846 1 710 711
M  V30 847 1 711 712
M  V30 848 1 712 1273
M  V30 849 1 712 713
M  V30 850 2 713 714
M  V30 851 2 715 720
M  V30 852 1 715 716
M  V30 853 1 716 717
M  V30 854 1 717 718
M  V30 855 1 717 1285
M  V30 856 2 718 719
M  V30 857 1 719 720
M  V30 858 1 720 721
M  V30 859 1 721 725
M  V30 860 2 721 722
M  V30 861 1 722 728
M  V30 862 1 722 723
M  V30 863 1 723 724
M  V30 864 1 725 729
M  V30 865 1 726 727
M  V30 866 1 727 728
M  V30 867 2 728 729
M  V30 868 1 729 730
M  V30 869 2 730 731
M  V30 870 1 730 735
M  V30 871 1 731 732
M  V30 872 1 732 733
M  V30 873 1 733 1272
M  V30 874 1 733 734
M  V30 875 2 734 735
M  V30 876 2 736 741
M  V30 877 1 736 737
M  V30 878 1 737 738
M  V30 879 1 738 739
M  V30 880 1 738 1272
M  V30 881 2 739 740
M  V30 882 1 740 741
M  V30 883 1 741 742
M  V30 884 1 742 746
M  V30 885 2 742 743
M  V30 886 1 743 749
M  V30 887 1 743 744
M  V30 888 1 744 745
M  V30 889 1 746 750
M  V30 890 1 747 748
M  V30 891 1 748 749
M  V30 892 2 749 750
M  V30 893 1 750 751
M  V30 894 2 751 752
M  V30 895 1 751 756
M  V30 896 1 752 753
M  V30 897 1 753 754
M  V30 898 1 754 1283
M  V30 899 1 754 755
M  V30 900 2 755 756
M  V30 901 2 757 762
M  V30 902 1 757 758
M  V30 903 1 758 759
M  V30 904 1 759 760
M  V30 905 1 759 1283
M  V30 906 2 760 761
M  V30 907 1 761 762
M  V30 908 1 762 763
M  V30 909 1 763 767
M  V30 910 2 763 764
M  V30 911 1 764 770
M  V30 912 1 764 765
M  V30 913 1 765 766
M  V30 914 1 767 771
M  V30 915 1 768 769
M  V30 916 1 769 770
M  V30 917 2 770 771
M  V30 918 1 771 772
M  V30 919 2 772 773
M  V30 920 1 772 777
M  V30 921 1 773 774
M  V30 922 1 774 775
M  V30 923 1 775 1282
M  V30 924 1 775 776
M  V30 925 2 776 777
M  V30 926 1 778 779
M  V30 927 2 778 783
M  V30 928 1 779 780
M  V30 929 1 780 1282
M  V30 930 1 780 781
M  V30 931 2 781 782
M  V30 932 1 782 783
M  V30 933 1 783 784
M  V30 934 1 784 788
M  V30 935 2 784 785
M  V30 936 1 785 786
M  V30 937 1 785 791
M  V30 938 1 786 787
M  V30 939 1 788 792
M  V30 940 1 789 790
M  V30 941 1 790 791
M  V30 942 2 791 792
M  V30 943 1 792 793
M  V30 944 2 793 794
M  V30 945 1 793 798
M  V30 946 1 794 795
M  V30 947 1 795 796
M  V30 948 1 796 797
M  V30 949 1 796 1271
M  V30 950 2 797 798
M  V30 951 1 799 800
M  V30 952 2 799 804
M  V30 953 1 800 801
M  V30 954 1 801 1281
M  V30 955 1 801 802
M  V30 956 2 802 803
M  V30 957 1 803 804
M  V30 958 1 804 805
M  V30 959 2 805 806
M  V30 960 1 805 809
M  V30 961 1 806 807
M  V30 962 1 806 812
M  V30 963 1 807 808
M  V30 964 1 809 813
M  V30 965 1 810 811
M  V30 966 1 811 812
M  V30 967 2 812 813
M  V30 968 1 813 814
M  V30 969 2 814 815
M  V30 970 1 814 819
M  V30 971 1 815 816
M  V30 972 1 816 817
M  V30 973 1 817 818
M  V30 974 1 817 1282
M  V30 975 2 818 819
M  V30 976 2 820 825
M  V30 977 1 820 821
M  V30 978 1 821 822
M  V30 979 1 822 823
M  V30 980 1 822 1270
M  V30 981 2 823 824
M  V30 982 1 824 825
M  V30 983 1 825 826
M  V30 984 2 826 827
M  V30 985 1 826 830
M  V30 986 1 827 833
M  V30 987 1 827 828
M  V30 988 1 828 829
M  V30 989 1 830 834
M  V30 990 1 831 832
M  V30 991 1 832 833
M  V30 992 2 833 834
M  V30 993 1 834 835
M  V30 994 1 835 840
M  V30 995 2 835 836
M  V30 996 1 836 837
M  V30 997 1 837 838
M  V30 998 1 838 1281
M  V30 999 1 838 839
M  V30 1000 2 839 840
M  V30 1001 2 841 846
M  V30 1002 1 841 842
M  V30 1003 1 842 843
M  V30 1004 1 843 844
M  V30 1005 1 843 1281
M  V30 1006 2 844 845
M  V30 1007 1 845 846
M  V30 1008 1 846 847
M  V30 1009 2 847 848
M  V30 1010 1 847 851
M  V30 1011 1 848 854
M  V30 1012 1 848 849
M  V30 1013 1 849 850
M  V30 1014 1 851 855
M  V30 1015 1 852 853
M  V30 1016 1 853 854
M  V30 1017 2 854 855
M  V30 1018 1 855 856
M  V30 1019 1 856 861
M  V30 1020 2 856 857
M  V30 1021 1 857 858
M  V30 1022 1 858 859
M  V30 1023 1 859 860
M  V30 1024 1 859 1269
M  V30 1025 2 860 861
M  V30 1026 2 862 867
M  V30 1027 1 862 863
M  V30 1028 1 863 864
M  V30 1029 1 864 865
M  V30 1030 1 864 1281
M  V30 1031 2 865 866
M  V30 1032 1 866 867
M  V30 1033 1 867 868
M  V30 1034 2 868 869
M  V30 1035 1 868 872
M  V30 1036 1 869 870
M  V30 1037 1 869 875
M  V30 1038 1 870 871
M  V30 1039 1 872 876
M  V30 1040 1 873 874
M  V30 1041 1 874 875
M  V30 1042 2 875 876
M  V30 1043 1 876 877
M  V30 1044 1 877 882
M  V30 1045 2 877 878
M  V30 1046 1 878 879
M  V30 1047 1 879 880
M  V30 1048 1 880 881
M  V30 1049 1 880 1280
M  V30 1050 2 881 882
M  V30 1051 2 883 888
M  V30 1052 1 883 884
M  V30 1053 1 884 885
M  V30 1054 1 885 886
M  V30 1055 1 885 1280
M  V30 1056 2 886 887
M  V30 1057 1 887 888
M  V30 1058 1 888 889
M  V30 1059 2 889 890
M  V30 1060 1 889 893
M  V30 1061 1 890 896
M  V30 1062 1 890 891
M  V30 1063 1 891 892
M  V30 1064 1 893 897
M  V30 1065 1 894 895
M  V30 1066 1 895 896
M  V30 1067 2 896 897
M  V30 1068 1 897 898
M  V30 1069 1 898 903
M  V30 1070 2 898 899
M  V30 1071 1 899 900
M  V30 1072 1 900 901
M  V30 1073 1 901 902
M  V30 1074 1 901 1268
M  V30 1075 2 902 903
M  V30 1076 1 904 905
M  V30 1077 2 904 909
M  V30 1078 1 905 906
M  V30 1079 1 906 907
M  V30 1080 1 906 1279
M  V30 1081 2 907 908
M  V30 1082 1 908 909
M  V30 1083 1 909 910
M  V30 1084 2 910 911
M  V30 1085 1 910 914
M  V30 1086 1 911 912
M  V30 1087 1 911 917
M  V30 1088 1 912 913
M  V30 1089 1 914 918
M  V30 1090 1 915 916
M  V30 1091 1 916 917
M  V30 1092 2 917 918
M  V30 1093 1 918 919
M  V30 1094 1 919 924
M  V30 1095 2 919 920
M  V30 1096 1 920 921
M  V30 1097 1 921 922
M  V30 1098 1 922 923
M  V30 1099 1 922 1280
M  V30 1100 2 923 924
M  V30 1101 1 925 926
M  V30 1102 2 925 930
M  V30 1103 1 926 927
M  V30 1104 1 927 1278
M  V30 1105 1 927 928
M  V30 1106 2 928 929
M  V30 1107 1 929 930
M  V30 1108 1 930 931
M  V30 1109 2 931 932
M  V30 1110 1 931 935
M  V30 1111 1 932 933
M  V30 1112 1 932 938
M  V30 1113 1 933 934
M  V30 1114 1 935 939
M  V30 1115 1 936 937
M  V30 1116 1 937 938
M  V30 1117 2 938 939
M  V30 1118 1 939 940
M  V30 1119 1 940 945
M  V30 1120 2 940 941
M  V30 1121 1 941 942
M  V30 1122 1 942 943
M  V30 1123 1 943 944
M  V30 1124 1 943 1279
M  V30 1125 2 944 945
M  V30 1126 1 946 947
M  V30 1127 2 946 951
M  V30 1128 1 947 948
M  V30 1129 1 948 1279
M  V30 1130 1 948 949
M  V30 1131 2 949 950
M  V30 1132 1 950 951
M  V30 1133 1 951 952
M  V30 1134 2 952 953
M  V30 1135 1 952 956
M  V30 1136 1 953 954
M  V30 1137 1 953 959
M  V30 1138 1 954 955
M  V30 1139 1 956 960
M  V30 1140 1 957 958
M  V30 1141 1 958 959
M  V30 1142 2 959 960
M  V30 1143 1 960 961
M  V30 1144 1 961 966
M  V30 1145 2 961 962
M  V30 1146 1 962 963
M  V30 1147 1 963 964
M  V30 1148 1 964 965
M  V30 1149 1 964 1288
M  V30 1150 2 965 966
M  V30 1151 2 967 972
M  V30 1152 1 967 968
M  V30 1153 1 968 969
M  V30 1154 1 969 970
M  V30 1155 1 969 1288
M  V30 1156 2 970 971
M  V30 1157 1 971 972
M  V30 1158 1 972 973
M  V30 1159 1 973 977
M  V30 1160 2 973 974
M  V30 1161 1 974 980
M  V30 1162 1 974 975
M  V30 1163 1 975 976
M  V30 1164 1 977 981
M  V30 1165 1 978 979
M  V30 1166 1 979 980
M  V30 1167 2 980 981
M  V30 1168 1 981 982
M  V30 1169 1 982 987
M  V30 1170 2 982 983
M  V30 1171 1 983 984
M  V30 1172 1 984 985
M  V30 1173 1 985 1277
M  V30 1174 1 985 986
M  V30 1175 2 986 987
M  V30 1176 2 988 993
M  V30 1177 1 988 989
M  V30 1178 1 989 990
M  V30 1179 1 990 991
M  V30 1180 1 990 1287
M  V30 1181 2 991 992
M  V30 1182 1 992 993
M  V30 1183 1 993 994
M  V30 1184 1 994 998
M  V30 1185 2 994 995
M  V30 1186 1 995 1001
M  V30 1187 1 995 996
M  V30 1188 1 996 997
M  V30 1189 1 998 1002
M  V30 1190 1 999 1000
M  V30 1191 1 1000 1001
M  V30 1192 2 1001 1002
M  V30 1193 1 1002 1003
M  V30 1194 1 1003 1008
M  V30 1195 2 1003 1004
M  V30 1196 1 1004 1005
M  V30 1197 1 1005 1006
M  V30 1198 1 1006 1288
M  V30 1199 1 1006 1007
M  V30 1200 2 1007 1008
M  V30 1201 1 1009 1010
M  V30 1202 2 1009 1014
M  V30 1203 1 1010 1011
M  V30 1204 1 1011 1276
M  V30 1205 1 1011 1012
M  V30 1206 2 1012 1013
M  V30 1207 1 1013 1014
M  V30 1208 1 1014 1015
M  V30 1209 1 1015 1019
M  V30 1210 2 1015 1016
M  V30 1211 1 1016 1017
M  V30 1212 1 1016 1022
M  V30 1213 1 1017 1018
M  V30 1214 1 1019 1023
M  V30 1215 1 1020 1021
M  V30 1216 1 1021 1022
M  V30 1217 2 1022 1023
M  V30 1218 1 1023 1024
M  V30 1219 2 1024 1025
M  V30 1220 1 1024 1029
M  V30 1221 1 1025 1026
M  V30 1222 1 1026 1027
M  V30 1223 1 1027 1028
M  V30 1224 1 1027 1287
M  V30 1225 2 1028 1029
M  V30 1226 1 1030 1031
M  V30 1227 2 1030 1035
M  V30 1228 1 1031 1032
M  V30 1229 1 1032 1287
M  V30 1230 1 1032 1033
M  V30 1231 2 1033 1034
M  V30 1232 1 1034 1035
M  V30 1233 1 1035 1036
M  V30 1234 1 1036 1040
M  V30 1235 2 1036 1037
M  V30 1236 1 1037 1038
M  V30 1237 1 1037 1043
M  V30 1238 1 1038 1039
M  V30 1239 1 1040 1044
M  V30 1240 1 1041 1042
M  V30 1241 1 1042 1043
M  V30 1242 2 1043 1044
M  V30 1243 1 1044 1045
M  V30 1244 2 1045 1046
M  V30 1245 1 1045 1050
M  V30 1246 1 1046 1047
M  V30 1247 1 1047 1048
M  V30 1248 1 1048 1286
M  V30 1249 1 1048 1049
M  V30 1250 2 1049 1050
M  V30 1251 2 1051 1056
M  V30 1252 1 1051 1052
M  V30 1253 1 1052 1053
M  V30 1254 1 1053 1054
M  V30 1255 1 1053 1284
M  V30 1256 2 1054 1055
M  V30 1257 1 1055 1056
M  V30 1258 1 1056 1057
M  V30 1259 1 1057 1061
M  V30 1260 2 1057 1058
M  V30 1261 1 1058 1064
M  V30 1262 1 1058 1059
M  V30 1263 1 1059 1060
M  V30 1264 1 1061 1065
M  V30 1265 1 1062 1063
M  V30 1266 1 1063 1064
M  V30 1267 2 1064 1065
M  V30 1268 1 1065 1066
M  V30 1269 2 1066 1067
M  V30 1270 1 1066 1071
M  V30 1271 1 1067 1068
M  V30 1272 1 1068 1069
M  V30 1273 1 1069 1287
M  V30 1274 1 1069 1070
M  V30 1275 2 1070 1071
M  V30 1276 2 1072 1077
M  V30 1277 1 1072 1073
M  V30 1278 1 1073 1074
M  V30 1279 1 1074 1075
M  V30 1280 1 1074 1285
M  V30 1281 2 1075 1076
M  V30 1282 1 1076 1077
M  V30 1283 1 1077 1078
M  V30 1284 1 1078 1082
M  V30 1285 2 1078 1079
M  V30 1286 1 1079 1085
M  V30 1287 1 1079 1080
M  V30 1288 1 1080 1081
M  V30 1289 1 1082 1086
M  V30 1290 1 1083 1084
M  V30 1291 1 1084 1085
M  V30 1292 2 1085 1086
M  V30 1293 1 1086 1087
M  V30 1294 2 1087 1088
M  V30 1295 1 1087 1092
M  V30 1296 1 1088 1089
M  V30 1297 1 1089 1090
M  V30 1298 1 1090 1284
M  V30 1299 1 1090 1091
M  V30 1300 2 1091 1092
M  V30 1301 2 1093 1098
M  V30 1302 1 1093 1094
M  V30 1303 1 1094 1095
M  V30 1304 1 1095 1096
M  V30 1305 1 1095 1284
M  V30 1306 2 1096 1097
M  V30 1307 1 1097 1098
M  V30 1308 1 1098 1099
M  V30 1309 1 1099 1103
M  V30 1310 2 1099 1100
M  V30 1311 1 1100 1106
M  V30 1312 1 1100 1101
M  V30 1313 1 1101 1102
M  V30 1314 1 1103 1107
M  V30 1315 1 1104 1105
M  V30 1316 1 1105 1106
M  V30 1317 2 1106 1107
M  V30 1318 1 1107 1108
M  V30 1319 2 1108 1109
M  V30 1320 1 1108 1113
M  V30 1321 1 1109 1110
M  V30 1322 1 1110 1111
M  V30 1323 1 1111 1283
M  V30 1324 1 1111 1112
M  V30 1325 2 1112 1113
M  V30 1326 2 1114 1119
M  V30 1327 1 1114 1115
M  V30 1328 1 1115 1116
M  V30 1329 1 1116 1117
M  V30 1330 1 1116 1283
M  V30 1331 2 1117 1118
M  V30 1332 1 1118 1119
M  V30 1333 1 1119 1120
M  V30 1334 1 1120 1124
M  V30 1335 2 1120 1121
M  V30 1336 1 1121 1127
M  V30 1337 1 1121 1122
M  V30 1338 1 1122 1123
M  V30 1339 1 1124 1128
M  V30 1340 1 1125 1126
M  V30 1341 1 1126 1127
M  V30 1342 2 1127 1128
M  V30 1343 1 1128 1129
M  V30 1344 2 1129 1130
M  V30 1345 1 1129 1134
M  V30 1346 1 1130 1131
M  V30 1347 1 1131 1132
M  V30 1348 1 1132 1290
M  V30 1349 1 1132 1133
M  V30 1350 2 1133 1134
M  V30 1351 1 1135 1136
M  V30 1352 2 1135 1140
M  V30 1353 1 1136 1137
M  V30 1354 1 1137 1290
M  V30 1355 1 1137 1138
M  V30 1356 2 1138 1139
M  V30 1357 1 1139 1140
M  V30 1358 1 1140 1141
M  V30 1359 2 1141 1142
M  V30 1360 1 1141 1145
M  V30 1361 1 1142 1143
M  V30 1362 1 1142 1148
M  V30 1363 1 1143 1144
M  V30 1364 1 1145 1149
M  V30 1365 1 1146 1147
M  V30 1366 1 1147 1148
M  V30 1367 2 1148 1149
M  V30 1368 1 1149 1150
M  V30 1369 2 1150 1151
M  V30 1370 1 1150 1155
M  V30 1371 1 1151 1152
M  V30 1372 1 1152 1153
M  V30 1373 1 1153 1154
M  V30 1374 1 1153 1282
M  V30 1375 2 1154 1155
M  V30 1376 1 1156 1157
M  V30 1377 2 1156 1161
M  V30 1378 1 1157 1158
M  V30 1379 1 1158 1280
M  V30 1380 1 1158 1159
M  V30 1381 2 1159 1160
M  V30 1382 1 1160 1161
M  V30 1383 1 1161 1162
M  V30 1384 2 1162 1163
M  V30 1385 1 1162 1166
M  V30 1386 1 1163 1164
M  V30 1387 1 1163 1169
M  V30 1388 1 1164 1165
M  V30 1389 1 1166 1170
M  V30 1390 1 1167 1168
M  V30 1391 1 1168 1169
M  V30 1392 2 1169 1170
M  V30 1393 1 1170 1171
M  V30 1394 1 1171 1176
M  V30 1395 2 1171 1172
M  V30 1396 1 1172 1173
M  V30 1397 1 1173 1174
M  V30 1398 1 1174 1175
M  V30 1399 1 1174 1290
M  V30 1400 2 1175 1176
M  V30 1401 1 1177 1178
M  V30 1402 2 1177 1182
M  V30 1403 1 1178 1179
M  V30 1404 1 1179 1180
M  V30 1405 1 1179 1290
M  V30 1406 2 1180 1181
M  V30 1407 1 1181 1182
M  V30 1408 1 1182 1183
M  V30 1409 1 1183 1187
M  V30 1410 2 1183 1184
M  V30 1411 1 1184 1185
M  V30 1412 1 1184 1190
M  V30 1413 1 1185 1186
M  V30 1414 1 1187 1191
M  V30 1415 1 1188 1189
M  V30 1416 1 1189 1190
M  V30 1417 2 1190 1191
M  V30 1418 1 1191 1192
M  V30 1419 2 1192 1193
M  V30 1420 1 1192 1197
M  V30 1421 1 1193 1194
M  V30 1422 1 1194 1195
M  V30 1423 1 1195 1289
M  V30 1424 1 1195 1196
M  V30 1425 2 1196 1197
M  V30 1426 2 1198 1203
M  V30 1427 1 1198 1199
M  V30 1428 1 1199 1200
M  V30 1429 1 1200 1201
M  V30 1430 1 1200 1289
M  V30 1431 2 1201 1202
M  V30 1432 1 1202 1203
M  V30 1433 1 1203 1204
M  V30 1434 1 1204 1208
M  V30 1435 2 1204 1205
M  V30 1436 1 1205 1211
M  V30 1437 1 1205 1206
M  V30 1438 1 1206 1207
M  V30 1439 1 1208 1212
M  V30 1440 1 1209 1210
M  V30 1441 1 1210 1211
M  V30 1442 2 1211 1212
M  V30 1443 1 1212 1213
M  V30 1444 1 1213 1218
M  V30 1445 2 1213 1214
M  V30 1446 1 1214 1215
M  V30 1447 1 1215 1216
M  V30 1448 1 1216 1279
M  V30 1449 1 1216 1217
M  V30 1450 2 1217 1218
M  V30 1451 1 1219 1220
M  V30 1452 2 1219 1224
M  V30 1453 1 1220 1221
M  V30 1454 1 1221 1288
M  V30 1455 1 1221 1222
M  V30 1456 2 1222 1223
M  V30 1457 1 1223 1224
M  V30 1458 1 1224 1225
M  V30 1459 1 1225 1229
M  V30 1460 2 1225 1226
M  V30 1461 1 1226 1227
M  V30 1462 1 1226 1232
M  V30 1463 1 1227 1228
M  V30 1464 1 1229 1233
M  V30 1465 1 1230 1231
M  V30 1466 1 1231 1232
M  V30 1467 2 1232 1233
M  V30 1468 1 1233 1234
M  V30 1469 2 1234 1235
M  V30 1470 1 1234 1239
M  V30 1471 1 1235 1236
M  V30 1472 1 1236 1237
M  V30 1473 1 1237 1238
M  V30 1474 1 1237 1289
M  V30 1475 2 1238 1239
M  V30 1476 2 1240 1245
M  V30 1477 1 1240 1241
M  V30 1478 1 1241 1242
M  V30 1479 1 1242 1243
M  V30 1480 1 1242 1284
M  V30 1481 2 1243 1244
M  V30 1482 1 1244 1245
M  V30 1483 1 1245 1246
M  V30 1484 1 1246 1250
M  V30 1485 2 1246 1247
M  V30 1486 1 1247 1253
M  V30 1487 1 1247 1248
M  V30 1488 1 1248 1249
M  V30 1489 1 1250 1254
M  V30 1490 1 1251 1252
M  V30 1491 1 1252 1253
M  V30 1492 2 1253 1254
M  V30 1493 1 1254 1255
M  V30 1494 2 1255 1256
M  V30 1495 1 1255 1260
M  V30 1496 1 1256 1257
M  V30 1497 1 1257 1258
M  V30 1498 1 1258 1289
M  V30 1499 1 1258 1259
M  V30 1500 2 1259 1260
M  V30 END BOND
M  V30 END CTAB
M  END
