     RDKit          3D

  0  0  0  0  0  0  0  0  0  0999 V3000
M  V30 BEGIN CTAB
M  V30 COUNTS 138 152 0 0 0
M  V30 BEGIN ATOM
M  V30 1 Pd 15.4650 7.5040 6.1450 0
M  V30 2 N 16.7790 8.9580 5.5910 0
M  V30 3 C 16.6440 9.4990 4.3420 0
M  V30 4 H 15.9890 9.1540 3.7470 0
M  V30 5 C 17.4390 10.5280 3.9440 0
M  V30 6 H 17.3450 10.8890 3.0690 0
M  V30 7 C 18.3910 11.0570 4.8100 0
M  V30 8 H 18.9370 11.7880 4.5470 0
M  V30 9 C 18.5220 10.4820 6.0760 0
M  V30 10 C 17.6940 9.4160 6.4240 0
M  V30 11 H 17.7910 9.0110 7.2790 0
M  V30 12 C 19.5010 10.9550 7.0180 0
M  V30 13 C 20.3310 11.3580 7.7860 0
M  V30 14 C 21.3790 11.8100 8.6460 0
M  V30 15 C 22.2900 12.7890 8.1780 0
M  V30 16 H 22.1660 13.1920 7.3260 0
M  V30 17 C 23.3690 13.1520 8.9850 0
M  V30 18 H 24.0080 13.7760 8.6590 0
M  V30 19 C 23.5220 12.6160 10.2460 0
M  V30 20 H 24.2620 12.8730 10.7860 0
M  V30 21 C 22.5770 11.6840 10.7370 0
M  V30 22 C 21.5240 11.2710 9.9110 0
M  V30 23 H 20.9080 10.6200 10.2210 0
M  V30 24 C 22.7080 11.1690 12.0920 0
M  V30 25 C 22.7980 10.7850 13.1960 0
M  V30 26 N 21.9590 8.9250 16.2700 0
M  V30 27 C 21.9710 9.3550 14.9790 0
M  V30 28 H 21.3670 8.9690 14.3560 0
M  V30 29 C 22.8410 10.3360 14.5540 0
M  V30 30 C 23.7690 10.8780 15.5110 0
M  V30 31 H 24.3810 11.5580 15.2600 0
M  V30 32 C 23.7490 10.3930 16.7920 0
M  V30 33 H 24.3670 10.7280 17.4310 0
M  V30 34 C 22.8360 9.4240 17.1640 0
M  V30 35 H 22.8280 9.1060 18.0590 0
M  V30 36 Pd 20.6330 7.5040 16.8110 0
M  V30 37 N 14.1390 8.9250 6.6950 0
M  V30 38 C 13.2920 9.4630 5.7980 0
M  V30 39 H 13.3260 9.1640 4.8960 0
M  V30 40 C 12.3720 10.4370 6.1430 0
M  V30 41 H 11.7800 10.7970 5.4940 0
M  V30 42 C 12.3310 10.8840 7.4770 0
M  V30 43 H 11.7040 11.5480 7.7440 0
M  V30 44 C 13.2000 10.3510 8.3760 0
M  V30 45 C 14.1100 9.3500 7.9420 0
M  V30 46 H 14.7160 8.9750 8.5700 0
M  V30 47 C 13.2600 10.7820 9.7330 0
M  V30 48 C 13.3490 11.1740 10.8980 0
M  V30 49 C 13.4570 11.6750 12.2180 0
M  V30 50 C 12.5560 12.6180 12.6880 0
M  V30 51 H 11.8420 12.9120 12.1350 0
M  V30 52 C 12.7030 13.1370 13.9770 0
M  V30 53 H 12.0790 13.7750 14.3040 0
M  V30 54 C 13.7530 12.7230 14.7780 0
M  V30 55 H 13.8540 13.0920 15.6470 0
M  V30 56 C 14.6590 11.7730 14.3220 0
M  V30 57 C 14.5190 11.2460 13.0190 0
M  V30 58 H 15.1410 10.6070 12.6910 0
M  V30 59 C 15.7140 11.3180 15.1780 0
M  V30 60 C 16.5630 10.9140 15.9320 0
M  V30 61 N 19.3470 8.9450 17.3740 0
M  V30 62 C 18.4080 9.4150 16.5180 0
M  V30 63 H 18.3360 9.0230 15.6560 0
M  V30 64 C 17.5380 10.4590 16.8640 0
M  V30 65 C 17.6650 11.0270 18.1470 0
M  V30 66 H 17.1080 11.7520 18.4100 0
M  V30 67 C 18.6040 10.5180 19.0120 0
M  V30 68 H 18.6850 10.8660 19.8920 0
M  V30 69 C 19.4420 9.4760 18.5820 0
M  V30 70 H 20.1020 9.1420 19.1790 0
M  V30 71 N 16.7790 6.0500 5.5910 0
M  V30 72 C 16.6440 5.5100 4.3420 0
M  V30 73 H 15.9890 5.8550 3.7470 0
M  V30 74 C 17.4390 4.4800 3.9440 0
M  V30 75 H 17.3450 4.1200 3.0690 0
M  V30 76 C 18.3910 3.9520 4.8100 0
M  V30 77 H 18.9370 3.2210 4.5470 0
M  V30 78 C 18.5220 4.5270 6.0760 0
M  V30 79 C 17.6940 5.5920 6.4240 0
M  V30 80 H 17.7910 5.9970 7.2790 0
M  V30 81 C 19.5010 4.0540 7.0180 0
M  V30 82 C 20.3310 3.6500 7.7860 0
M  V30 83 C 21.3790 3.1980 8.6460 0
M  V30 84 C 22.2900 2.2200 8.1780 0
M  V30 85 H 22.1660 1.8160 7.3260 0
M  V30 86 C 23.3690 1.8570 8.9850 0
M  V30 87 H 24.0080 1.2320 8.6590 0
M  V30 88 C 23.5220 2.3920 10.2460 0
M  V30 89 H 24.2620 2.1360 10.7860 0
M  V30 90 C 22.5770 3.3240 10.7370 0
M  V30 91 C 21.5240 3.7370 9.9110 0
M  V30 92 H 20.9080 4.3880 10.2210 0
M  V30 93 C 22.7080 3.8390 12.0920 0
M  V30 94 C 22.7980 4.2230 13.1960 0
M  V30 95 N 21.9590 6.0830 16.2700 0
M  V30 96 C 21.9710 5.6540 14.9790 0
M  V30 97 H 21.3670 6.0390 14.3560 0
M  V30 98 C 22.8410 4.6720 14.5540 0
M  V30 99 C 23.7690 4.1300 15.5110 0
M  V30 100 H 24.3810 3.4500 15.2600 0
M  V30 101 C 23.7490 4.6150 16.7920 0
M  V30 102 H 24.3670 4.2800 17.4310 0
M  V30 103 C 22.8360 5.5850 17.1640 0
M  V30 104 H 22.8280 5.9030 18.0590 0
M  V30 105 N 14.1390 6.0830 6.6950 0
M  V30 106 C 13.2920 5.5460 5.7980 0
M  V30 107 H 13.3260 5.8440 4.8960 0
M  V30 108 C 12.3720 4.5720 6.1430 0
M  V30 109 H 11.7800 4.2110 5.4940 0
M  V30 110 C 12.3310 4.1240 7.4770 0
M  V30 111 H 11.7040 3.4610 7.7440 0
M  V30 112 C 13.2000 4.6570 8.3760 0
M  V30 113 C 14.1100 5.6580 7.9420 0
M  V30 114 H 14.7160 6.0330 8.5700 0
M  V30 115 C 13.2600 4.2260 9.7330 0
M  V30 116 C 13.3490 3.8350 10.8980 0
M  V30 117 C 13.4570 3.3330 12.2180 0
M  V30 118 C 12.5560 2.3910 12.6880 0
M  V30 119 H 11.8420 2.0970 12.1350 0
M  V30 120 C 12.7030 1.8720 13.9770 0
M  V30 121 H 12.0790 1.2340 14.3040 0
M  V30 122 C 13.7530 2.2860 14.7780 0
M  V30 123 H 13.8540 1.9170 15.6470 0
M  V30 124 C 14.6590 3.2360 14.3220 0
M  V30 125 C 14.5190 3.7630 13.0190 0
M  V30 126 H 15.1410 4.4020 12.6910 0
M  V30 127 C 15.7140 3.6910 15.1780 0
M  V30 128 C 16.5630 4.0940 15.9320 0
M  V30 129 N 19.3470 6.0640 17.3740 0
M  V30 130 C 18.4080 5.5940 16.5180 0
M  V30 131 H 18.3360 5.9850 15.6560 0
M  V30 132 C 17.5380 4.5490 16.8640 0
M  V30 133 C 17.6650 3.9820 18.1470 0
M  V30 134 H 17.1080 3.2570 18.4100 0
M  V30 135 C 18.6040 4.4910 19.0120 0
M  V30 136 H 18.6850 4.1420 19.8920 0
M  V30 137 C 19.4420 5.5320 18.5820 0
M  V30 138 H 20.1020 5.8670 19.1790 0
M  V30 END ATOM
M  V30 BEGIN BOND
M  V30 1 1   1  71
M  V30 2 1   1   2
M  V30 3 1   1 105
M  V30 4 1   1  37
M  V30 5 1   2   3
M  V30 6 1   2  10
M  V30 7 1   3   4
M  V30 8 1   3   5
M  V30 9 1   5   6
M  V30 10 1   5   7
M  V30 11 1   7   8
M  V30 12 1   7   9
M  V30 13 1   9  10
M  V30 14 1   9  12
M  V30 15 1  10  11
M  V30 16 1  12  13
M  V30 17 1  13  14
M  V30 18 1  14  15
M  V30 19 1  14  22
M  V30 20 1  15  16
M  V30 21 1  15  17
M  V30 22 1  17  18
M  V30 23 1  17  19
M  V30 24 1  19  21
M  V30 25 1  19  20
M  V30 26 1  21  22
M  V30 27 1  21  24
M  V30 28 1  22  23
M  V30 29 1  24  25
M  V30 30 1  25  29
M  V30 31 1  26  27
M  V30 32 1  26  34
M  V30 33 1  27  28
M  V30 34 1  27  29
M  V30 35 1  29  30
M  V30 36 1  30  31
M  V30 37 1  30  32
M  V30 38 1  32  34
M  V30 39 1  32  33
M  V30 40 1  34  35
M  V30 41 1  36  26
M  V30 42 1  36  95
M  V30 43 1  36 129
M  V30 44 1  36  61
M  V30 45 1  37  38
M  V30 46 1  37  45
M  V30 47 1  38  39
M  V30 48 1  38  40
M  V30 49 1  40  41
M  V30 50 1  40  42
M  V30 51 1  42  43
M  V30 52 1  42  44
M  V30 53 1  44  45
M  V30 54 1  44  47
M  V30 55 1  45  46
M  V30 56 1  47  48
M  V30 57 1  48  49
M  V30 58 1  49  50
M  V30 59 1  49  57
M  V30 60 1  50  51
M  V30 61 1  50  52
M  V30 62 1  52  53
M  V30 63 1  52  54
M  V30 64 1  54  56
M  V30 65 1  54  55
M  V30 66 1  56  57
M  V30 67 1  56  59
M  V30 68 1  57  58
M  V30 69 1  59  60
M  V30 70 1  60  64
M  V30 71 1  61  62
M  V30 72 1  61  69
M  V30 73 1  62  63
M  V30 74 1  62  64
M  V30 75 1  64  65
M  V30 76 1  65  66
M  V30 77 1  65  67
M  V30 78 1  67  69
M  V30 79 1  67  68
M  V30 80 1  69  70
M  V30 81 1  71  72
M  V30 82 1  71  79
M  V30 83 1  72  73
M  V30 84 1  72  74
M  V30 85 1  74  75
M  V30 86 1  74  76
M  V30 87 1  76  77
M  V30 88 1  76  78
M  V30 89 1  78  79
M  V30 90 1  78  81
M  V30 91 1  79  80
M  V30 92 1  81  82
M  V30 93 1  82  83
M  V30 94 1  83  84
M  V30 95 1  83  91
M  V30 96 1  84  85
M  V30 97 1  84  86
M  V30 98 1  86  87
M  V30 99 1  86  88
M  V30 100 1  88  90
M  V30 101 1  88  89
M  V30 102 1  90  91
M  V30 103 1  90  93
M  V30 104 1  91  92
M  V30 105 1  93  94
M  V30 106 1  94  98
M  V30 107 1  95  96
M  V30 108 1  95 103
M  V30 109 1  96  97
M  V30 110 1  96  98
M  V30 111 1  98  99
M  V30 112 1  99 100
M  V30 113 1  99 101
M  V30 114 1 101 103
M  V30 115 1 101 102
M  V30 116 1 103 104
M  V30 117 1 105 106
M  V30 118 1 105 113
M  V30 119 1 106 107
M  V30 120 1 106 108
M  V30 121 1 108 109
M  V30 122 1 108 110
M  V30 123 1 110 111
M  V30 124 1 110 112
M  V30 125 1 112 113
M  V30 126 1 112 115
M  V30 127 1 113 114
M  V30 128 1 115 116
M  V30 129 1 116 117
M  V30 130 1 117 118
M  V30 131 1 117 125
M  V30 132 1 118 119
M  V30 133 1 118 120
M  V30 134 1 120 121
M  V30 135 1 120 122
M  V30 136 1 122 124
M  V30 137 1 122 123
M  V30 138 1 124 125
M  V30 139 1 124 127
M  V30 140 1 125 126
M  V30 141 1 127 128
M  V30 142 1 128 132
M  V30 143 1 129 130
M  V30 144 1 129 137
M  V30 145 1 130 131
M  V30 146 1 130 132
M  V30 147 1 132 133
M  V30 148 1 133 134
M  V30 149 1 133 135
M  V30 150 1 135 137
M  V30 151 1 135 136
M  V30 152 1 137 138
M  V30 153 1 M   END
M  V30 END BOND
M  V30 END CTAB

