     RDKit          3D

  0  0  0  0  0  0  0  0  0  0999 V3000
M  V30 BEGIN CTAB
M  V30 COUNTS 376 426 0 0 0
M  V30 BEGIN ATOM
M  V30 1 Fe 11.1970 6.4630 71.6680 0
M  V30 2 Fe 1.4810 7.8360 85.2550 0
M  V30 3 N 0.7300 6.2940 86.5100 0
M  V30 4 N 2.0600 6.2900 84.1930 0
M  V30 5 N 10.8500 4.7920 72.6200 0
M  V30 6 N 12.2950 5.2360 70.5850 0
M  V30 7 C 0.1660 6.4070 87.7220 0
M  V30 8 H 0.0090 7.2680 88.0860 0
M  V30 9 C -0.1890 5.2690 88.4370 0
M  V30 10 H -0.5930 5.3400 89.2960 0
M  V30 11 C 0.0580 4.0370 87.8770 0
M  V30 12 H -0.1820 3.2480 88.3390 0
M  V30 13 C 0.6500 3.9380 86.6330 0
M  V30 14 H 0.8090 3.0850 86.2450 0
M  V30 15 C 1.0130 5.0900 85.9450 0
M  V30 16 C 1.7480 5.1060 84.6950 0
M  V30 17 H 1.9950 4.3010 84.2580 0
M  V30 18 C 2.8820 6.3370 83.0160 0
M  V30 19 C 2.3820 6.7680 81.7950 0
M  V30 20 H 1.4850 7.0700 81.7480 0
M  V30 21 C 3.1500 6.7710 80.6430 0
M  V30 22 H 2.7720 7.0780 79.8340 0
M  V30 23 C 4.4750 6.3310 80.6610 0
M  V30 24 C 4.9640 5.9030 81.8870 0
M  V30 25 H 5.8590 5.5870 81.9290 0
M  V30 26 C 4.2080 5.9120 83.0480 0
M  V30 27 H 4.5970 5.6270 83.8610 0
M  V30 28 C 5.3420 6.4150 79.4550 0
M  V30 29 C 5.5940 7.6340 78.8640 0
M  V30 30 H 5.2370 8.4240 79.2560 0
M  V30 31 C 6.3560 7.7350 77.7070 0
M  V30 32 H 6.4910 8.5940 77.3240 0
M  V30 33 C 6.9140 6.6550 77.0980 0
M  V30 34 H 7.4190 6.7580 76.2950 0
M  V30 35 C 6.7270 5.3770 77.6720 0
M  V30 36 C 5.9270 5.2590 78.8550 0
M  V30 37 C 5.7320 3.9640 79.3930 0
M  V30 38 H 5.2180 3.8530 80.1770 0
M  V30 39 C 6.2800 2.8680 78.7790 0
M  V30 40 H 6.1420 2.0090 79.1660 0
M  V30 41 C 7.0320 2.9800 77.6160 0
M  V30 42 H 7.3630 2.1970 77.1980 0
M  V30 43 C 7.3020 4.2160 77.0730 0
M  V30 44 C 8.2510 4.3130 75.9260 0
M  V30 45 C 9.6310 4.3650 76.1160 0
M  V30 46 H 9.9890 4.2850 76.9990 0
M  V30 47 C 10.4870 4.5360 75.0400 0
M  V30 48 H 11.4220 4.6070 75.1930 0
M  V30 49 C 10.0140 4.6020 73.7450 0
M  V30 50 C 8.6320 4.5410 73.5520 0
M  V30 51 H 8.2800 4.5960 72.6650 0
M  V30 52 C 7.7690 4.4040 74.6190 0
M  V30 53 H 6.8340 4.3710 74.4710 0
M  V30 54 C 11.4840 3.7150 72.2210 0
M  V30 55 H 11.4260 2.8740 72.6470 0
M  V30 56 C 12.2890 3.9660 71.0360 0
M  V30 57 C 13.0080 2.9840 70.3660 0
M  V30 58 H 13.0080 2.0880 70.6790 0
M  V30 59 C 13.7250 3.3290 69.2320 0
M  V30 60 H 14.1930 2.6620 68.7460 0
M  V30 61 C 13.7560 4.6400 68.8060 0
M  V30 62 H 14.2650 4.8900 68.0420 0
M  V30 63 C 13.0390 5.5790 69.5030 0
M  V30 64 H 13.0620 6.4860 69.2160 0
M  V30 65 N 0.0250 8.2680 84.1790 0
M  V30 66 N 2.4380 9.1680 84.2020 0
M  V30 67 N 16.2380 12.8910 86.6290 0
M  V30 68 N 18.6540 14.0040 86.6420 0
M  V30 69 C -1.1800 7.6870 84.3110 0
M  V30 70 H -1.3410 7.0230 84.9800 0
M  V30 71 C -2.1550 8.0880 83.4510 0
M  V30 72 H -3.0160 7.6910 83.5000 0
M  V30 73 C -1.9230 9.0560 82.5070 0
M  V30 74 H -2.6230 9.3370 81.9290 0
M  V30 75 C -0.6560 9.6260 82.3980 0
M  V30 76 H -0.4790 10.2970 81.7480 0
M  V30 77 C 0.3370 9.1930 83.2560 0
M  V30 78 C 1.7060 9.6920 83.2510 0
M  V30 79 H 2.0320 10.3260 82.6150 0
M  V30 80 C 3.7800 9.6100 84.2690 0
M  V30 81 C 4.2430 10.3320 85.3560 0
M  V30 82 H 3.6590 10.5760 86.0640 0
M  V30 83 C 5.5880 10.6900 85.3780 0
M  V30 84 H 5.9270 11.1650 86.1360 0
M  V30 85 C 6.4470 10.3720 84.3320 0
M  V30 86 C 5.9450 9.6960 83.2250 0
M  V30 87 H 6.5060 9.5070 82.4880 0
M  V30 88 C 4.6250 9.2980 83.2180 0
M  V30 89 H 4.2880 8.8040 82.4880 0
M  V30 90 C 7.8750 10.8050 84.3050 0
M  V30 91 C 8.3100 11.5440 83.2310 0
M  V30 92 H 7.7150 11.7220 82.5070 0
M  V30 93 C 9.6140 12.0360 83.1840 0
M  V30 94 H 9.8970 12.5540 82.4340 0
M  V30 95 C 10.4890 11.7720 84.2060 0
M  V30 96 H 11.3770 12.1040 84.1500 0
M  V30 97 C 10.0980 11.0180 85.3420 0
M  V30 98 C 8.7500 10.5140 85.3800 0
M  V30 99 C 8.3800 9.7170 86.4850 0
M  V30 100 H 7.4950 9.3720 86.5330 0
M  V30 101 C 9.2540 9.4280 87.4850 0
M  V30 102 H 8.9740 8.8770 88.2130 0
M  V30 103 C 10.5520 9.9260 87.4670 0
M  V30 104 H 11.1480 9.7110 88.1770 0
M  V30 105 C 10.9750 10.7250 86.4360 0
M  V30 106 C 12.3500 11.3030 86.4790 0
M  V30 107 C 13.4360 10.5700 86.0440 0
M  V30 108 H 13.3090 9.6880 85.7210 0
M  V30 109 C 14.7130 11.1150 86.0870 0
M  V30 110 H 15.4550 10.5970 85.7930 0
M  V30 111 C 14.9160 12.3930 86.5410 0
M  V30 112 C 13.8310 13.1470 86.9630 0
M  V30 113 H 13.9600 14.0370 87.2740 0
M  V30 114 C 12.5580 12.6020 86.9420 0
M  V30 115 H 11.8210 13.1180 87.2380 0
M  V30 116 C 16.9020 12.7340 87.6980 0
M  V30 117 H 16.5490 12.2510 88.4300 0
M  V30 118 C 18.2260 13.3290 87.7380 0
M  V30 119 C 19.0720 13.2270 88.8390 0
M  V30 120 H 18.7890 12.7500 89.6030 0
M  V30 121 C 20.3190 13.8200 88.8090 0
M  V30 122 H 20.8920 13.7660 89.5670 0
M  V30 123 C 20.7220 14.4830 87.6910 0
M  V30 124 H 21.5880 14.8710 87.6530 0
M  V30 125 C 19.8740 14.5860 86.6260 0
M  V30 126 H 20.1470 15.0750 85.8650 0
M  V30 127 Fe 14.8640 -2.6350 85.2550 0
M  V30 128 N 16.5750 -2.5150 86.5100 0
M  V30 129 N 15.9130 -1.3610 84.1930 0
M  V30 130 N 12.8170 7.0000 72.6200 0
M  V30 131 N 11.7090 8.0300 70.5850 0
M  V30 132 C 16.7600 -3.0600 87.7220 0
M  V30 133 H 16.0920 -3.6260 88.0860 0
M  V30 134 C 17.9230 -2.7980 88.4370 0
M  V30 135 H 18.0630 -3.1840 89.2960 0
M  V30 136 C 18.8660 -1.9680 87.8770 0
M  V30 137 H 19.6690 -1.7820 88.3390 0
M  V30 138 C 18.6550 -1.4060 86.6330 0
M  V30 139 H 19.3140 -0.8420 86.2450 0
M  V30 140 C 17.4760 -1.6680 85.9450 0
M  V30 141 C 17.0960 -1.0390 84.6950 0
M  V30 142 H 17.6690 -0.4230 84.2580 0
M  V30 143 C 15.4620 -0.6730 83.0160 0
M  V30 144 C 15.3390 -1.3210 81.7950 0
M  V30 145 H 15.5260 -2.2490 81.7480 0
M  V30 146 C 14.9520 -0.6570 80.6430 0
M  V30 147 H 14.8750 -1.1380 79.8340 0
M  V30 148 C 14.6710 0.7100 80.6610 0
M  V30 149 C 14.7970 1.3480 81.8870 0
M  V30 150 H 14.6240 2.2800 81.9290 0
M  V30 151 C 15.1670 0.6880 83.0480 0
M  V30 152 H 15.2190 1.1670 83.8610 0
M  V30 153 C 14.1650 1.4190 79.4550 0
M  V30 154 C 12.9820 1.0280 78.8640 0
M  V30 155 H 12.4770 0.3240 79.2560 0
M  V30 156 C 12.5140 1.6370 77.7070 0
M  V30 157 H 11.7030 1.3240 77.3240 0
M  V30 158 C 13.1700 2.6600 77.0980 0
M  V30 159 H 12.8290 3.0460 76.2950 0
M  V30 160 C 14.3710 3.1370 77.6720 0
M  V30 161 C 14.8730 2.5030 78.8550 0
M  V30 162 C 16.0920 2.9820 79.3930 0
M  V30 163 H 16.4450 2.5930 80.1770 0
M  V30 164 C 16.7670 4.0040 78.7790 0
M  V30 165 H 17.5800 4.3150 79.1660 0
M  V30 166 C 16.2940 4.6000 77.6160 0
M  V30 167 H 16.8070 5.2780 77.1980 0
M  V30 168 C 15.0890 4.2160 77.0730 0
M  V30 169 C 14.5310 4.9890 75.9260 0
M  V30 170 C 13.7950 6.1590 76.1160 0
M  V30 171 H 13.6850 6.5080 76.9990 0
M  V30 172 C 13.2200 6.8140 75.0400 0
M  V30 173 H 12.6900 7.5880 75.1930 0
M  V30 174 C 13.3990 6.3720 73.7450 0
M  V30 175 C 14.1420 5.2050 73.5520 0
M  V30 176 H 14.2710 4.8730 72.6650 0
M  V30 177 C 14.6930 4.5260 74.6190 0
M  V30 178 H 15.1890 3.7330 74.4710 0
M  V30 179 C 13.4310 8.0880 72.2210 0
M  V30 180 H 14.1890 8.4580 72.6470 0
M  V30 181 C 12.8120 8.6600 71.0360 0
M  V30 182 C 13.3020 9.7730 70.3660 0
M  V30 183 H 14.0780 10.2210 70.6790 0
M  V30 184 C 12.6450 10.2210 69.2320 0
M  V30 185 H 12.9890 10.9600 68.7460 0
M  V30 186 C 11.4940 9.5930 68.8060 0
M  V30 187 H 11.0230 9.9090 68.0420 0
M  V30 188 C 11.0400 8.5030 69.5030 0
M  V30 189 H 10.2430 8.0690 69.2160 0
M  V30 190 N 15.2180 -4.1130 84.1790 0
M  V30 191 N 13.2320 -2.4720 84.2020 0
M  V30 192 N 3.1080 7.6170 86.6290 0
M  V30 193 N 0.9360 9.1530 86.6420 0
M  V30 194 C 16.3240 -4.8650 84.3110 0
M  V30 195 H 16.9790 -4.6730 84.9800 0
M  V30 196 C 16.4640 -5.9100 83.4510 0
M  V30 197 H 17.2390 -6.4570 83.5000 0
M  V30 198 C 15.5100 -6.1940 82.5070 0
M  V30 199 H 15.6170 -6.9400 81.9290 0
M  V30 200 C 14.3830 -5.3810 82.3980 0
M  V30 201 H 13.7130 -5.5630 81.7480 0
M  V30 202 C 14.2610 -4.3050 83.2560 0
M  V30 203 C 13.1450 -3.3680 83.2510 0
M  V30 204 H 12.4330 -3.4030 82.6150 0
M  V30 205 C 12.1780 -1.5320 84.2690 0
M  V30 206 C 11.3220 -1.4910 85.3560 0
M  V30 207 H 11.4030 -2.1190 86.0640 0
M  V30 208 C 10.3390 -0.5060 85.3780 0
M  V30 209 H 9.7580 -0.4500 86.1360 0
M  V30 210 C 10.1850 0.3980 84.3320 0
M  V30 211 C 11.0220 0.3010 83.2250 0
M  V30 212 H 10.9040 0.8800 82.4880 0
M  V30 213 C 12.0260 -0.6440 83.2180 0
M  V30 214 H 12.6230 -0.6880 82.4880 0
M  V30 215 C 9.0960 1.4170 84.3050 0
M  V30 216 C 8.2390 1.4250 83.2310 0
M  V30 217 H 8.3820 0.8200 82.5070 0
M  V30 218 C 7.1610 2.3080 83.1840 0
M  V30 219 H 6.5710 2.2940 82.4340 0
M  V30 220 C 6.9510 3.1980 84.2060 0
M  V30 221 H 6.2200 3.8010 84.1500 0
M  V30 222 C 7.8000 3.2360 85.3420 0
M  V30 223 C 8.9110 2.3210 85.3800 0
M  V30 224 C 9.7860 2.3990 86.4850 0
M  V30 225 H 10.5270 1.8050 86.5330 0
M  V30 226 C 9.5990 3.3000 87.4850 0
M  V30 227 H 10.2160 3.3330 88.2130 0
M  V30 228 C 8.5190 4.1750 87.4670 0
M  V30 229 H 8.4070 4.7990 88.1770 0
M  V30 230 C 7.6150 4.1420 86.4360 0
M  V30 231 C 6.4270 5.0440 86.4790 0
M  V30 232 C 6.5190 6.3510 86.0440 0
M  V30 233 H 7.3460 6.6820 85.7210 0
M  V30 234 C 5.4090 7.1840 86.0870 0
M  V30 235 H 5.4860 8.0860 85.7930 0
M  V30 236 C 4.2010 6.7210 86.5410 0
M  V30 237 C 4.0900 5.4040 86.9630 0
M  V30 238 H 3.2550 5.0710 87.2740 0
M  V30 239 C 5.1980 4.5740 86.9420 0
M  V30 240 H 5.1200 3.6790 87.2380 0
M  V30 241 C 2.9120 8.2700 87.6980 0
M  V30 242 H 3.5060 8.2060 88.4300 0
M  V30 243 C 1.7340 9.1200 87.7380 0
M  V30 244 C 1.4010 9.9030 88.8390 0
M  V30 245 H 1.9550 9.8970 89.6030 0
M  V30 246 C 0.2630 10.6860 88.8090 0
M  V30 247 H 0.0240 11.2100 89.5670 0
M  V30 248 C -0.5130 10.7040 87.6910 0
M  V30 249 H -1.2820 11.2600 87.6530 0
M  V30 250 C -0.1780 9.9190 86.6260 0
M  V30 251 H -0.7380 9.9110 85.8650 0
M  V30 252 Fe 17.2410 14.1900 85.2550 0
M  V30 253 N 16.2820 15.6120 86.5100 0
M  V30 254 N 15.6130 14.4620 84.1930 0
M  V30 255 N 9.9200 7.5990 72.6200 0
M  V30 256 N 9.5820 6.1260 70.5850 0
M  V30 257 C 16.6610 16.0440 87.7220 0
M  V30 258 H 17.4850 15.7500 88.0860 0
M  V30 259 C 15.8530 16.9210 88.4370 0
M  V30 260 H 16.1170 17.2350 89.2960 0
M  V30 261 C 14.6630 17.3220 87.8770 0
M  V30 262 H 14.1000 17.9250 88.3390 0
M  V30 263 C 14.2810 16.8590 86.6330 0
M  V30 264 H 13.4630 17.1480 86.2450 0
M  V30 265 C 15.0970 15.9690 85.9450 0
M  V30 266 C 14.7430 15.3250 84.6950 0
M  V30 267 H 13.9230 15.5130 84.2580 0
M  V30 268 C 15.2430 13.7270 83.0160 0
M  V30 269 C 15.8650 13.9440 81.7950 0
M  V30 270 H 16.5760 14.5710 81.7480 0
M  V30 271 C 15.4850 13.2770 80.6430 0
M  V30 272 H 15.9390 13.4520 79.8340 0
M  V30 273 C 14.4410 12.3500 80.6610 0
M  V30 274 C 13.8250 12.1410 81.8870 0
M  V30 275 H 13.1040 11.5240 81.9290 0
M  V30 276 C 14.2120 12.7900 83.0480 0
M  V30 277 H 13.7700 12.5970 83.8610 0
M  V30 278 C 14.0790 11.5570 79.4550 0
M  V30 279 C 15.0100 10.7290 78.8640 0
M  V30 280 H 15.8720 10.6440 79.2560 0
M  V30 281 C 14.7160 10.0190 77.7070 0
M  V30 282 H 15.3930 9.4730 77.3240 0
M  V30 283 C 13.5020 10.0760 77.0980 0
M  V30 284 H 13.3380 9.5870 76.2950 0
M  V30 285 C 12.4890 10.8770 77.6720 0
M  V30 286 C 12.7860 11.6290 78.8550 0
M  V30 287 C 11.7620 12.4450 79.3930 0
M  V30 288 H 11.9230 12.9460 80.1770 0
M  V30 289 C 10.5390 12.5190 78.7790 0
M  V30 290 H 9.8640 13.0680 79.1660 0
M  V30 291 C 10.2610 11.8110 77.6160 0
M  V30 292 H 9.4170 11.9160 77.1980 0
M  V30 293 C 11.1950 10.9600 77.0730 0
M  V30 294 C 10.8050 10.0890 75.9260 0
M  V30 295 C 10.1600 8.8680 76.1160 0
M  V30 296 H 9.9120 8.5980 76.9990 0
M  V30 297 C 9.8800 8.0420 75.0400 0
M  V30 298 H 9.4750 7.1960 75.1930 0
M  V30 299 C 10.1730 8.4180 73.7450 0
M  V30 300 C 10.8130 9.6450 73.5520 0
M  V30 301 H 11.0350 9.9220 72.6650 0
M  V30 302 C 11.1250 10.4620 74.6190 0
M  V30 303 H 11.5640 11.2880 74.4710 0
M  V30 304 C 8.6710 7.5880 72.2210 0
M  V30 305 H 7.9710 8.0590 72.6470 0
M  V30 306 C 8.4850 6.7660 71.0360 0
M  V30 307 C 7.2760 6.6340 70.3660 0
M  V30 308 H 6.5000 7.0820 70.6790 0
M  V30 309 C 7.2170 5.8410 69.2320 0
M  V30 310 H 6.4050 5.7690 68.7460 0
M  V30 311 C 8.3360 5.1580 68.8060 0
M  V30 312 H 8.2980 4.5920 68.0420 0
M  V30 313 C 9.5070 5.3090 69.5030 0
M  V30 314 H 10.2820 4.8360 69.2160 0
M  V30 315 N 18.3440 15.2360 84.1790 0
M  V30 316 N 17.9160 12.6950 84.2020 0
M  V30 317 N 14.2410 -1.1170 86.6290 0
M  V30 318 N 13.9970 -3.7660 86.6420 0
M  V30 319 C 18.4420 16.5700 84.3110 0
M  V30 320 H 17.9490 17.0410 84.9800 0
M  V30 321 C 19.2780 17.2140 83.4510 0
M  V30 322 H 19.3640 18.1580 83.5000 0
M  V30 323 C 20.0000 16.5290 82.5070 0
M  V30 324 H 20.5930 16.9940 81.9290 0
M  V30 325 C 19.8600 15.1460 82.3980 0
M  V30 326 H 20.3520 14.6580 81.7480 0
M  V30 327 C 18.9890 14.5030 83.2560 0
M  V30 328 C 18.7360 13.0680 83.2510 0
M  V30 329 H 19.1220 12.4690 82.6150 0
M  V30 330 C 17.6280 11.3130 84.2690 0
M  V30 331 C 18.0210 10.5510 85.3560 0
M  V30 332 H 18.5250 10.9350 86.0640 0
M  V30 333 C 17.6600 9.2070 85.3780 0
M  V30 334 H 17.9020 8.6760 86.1360 0
M  V30 335 C 16.9540 8.6210 84.3320 0
M  V30 336 C 16.6200 9.3950 83.2250 0
M  V30 337 H 16.1760 9.0030 82.4880 0
M  V30 338 C 16.9350 10.7370 83.2180 0
M  V30 339 H 16.6760 11.2760 82.4880 0
M  V30 340 C 16.6150 7.1690 84.3050 0
M  V30 341 C 17.0370 6.4220 83.2310 0
M  V30 342 H 17.4900 6.8490 82.5070 0
M  V30 343 C 16.8120 5.0480 83.1840 0
M  V30 344 H 17.1190 4.5430 82.4340 0
M  V30 345 C 16.1460 4.4210 84.2060 0
M  V30 346 H 15.9890 3.4870 84.1500 0
M  V30 347 C 15.6880 5.1370 85.3420 0
M  V30 348 C 15.9260 6.5560 85.3800 0
M  V30 349 C 15.4210 7.2760 86.4850 0
M  V30 350 H 15.5640 8.2140 86.5330 0
M  V30 351 C 14.7330 6.6630 87.4850 0
M  V30 352 H 14.3960 7.1810 88.2130 0
M  V30 353 C 14.5160 5.2900 87.4670 0
M  V30 354 H 14.0310 4.8810 88.1770 0
M  V30 355 C 14.9960 4.5240 86.4360 0
M  V30 356 C 14.8090 3.0440 86.4790 0
M  V30 357 C 13.6320 2.4700 86.0440 0
M  V30 358 H 12.9310 3.0210 85.7210 0
M  V30 359 C 13.4650 1.0920 86.0870 0
M  V30 360 H 12.6450 0.7080 85.7930 0
M  V30 361 C 14.4700 0.2770 86.5410 0
M  V30 362 C 15.6660 0.8400 86.9630 0
M  V30 363 H 16.3720 0.2830 87.2740 0
M  V30 364 C 15.8300 2.2140 86.9420 0
M  V30 365 H 16.6450 2.5950 87.2380 0
M  V30 366 C 13.7730 -1.6130 87.6980 0
M  V30 367 H 13.5310 -1.0670 88.4300 0
M  V30 368 C 13.6260 -3.0580 87.7380 0
M  V30 369 C 13.1140 -3.7390 88.8390 0
M  V30 370 H 12.8420 -3.2560 89.6030 0
M  V30 371 C 13.0050 -5.1150 88.8090 0
M  V30 372 H 12.6710 -5.5850 89.5670 0
M  V30 373 C 13.3770 -5.7960 87.6910 0
M  V30 374 H 13.2800 -6.7400 87.6530 0
M  V30 375 C 13.8900 -5.1130 86.6260 0
M  V30 376 H 14.1770 -5.5940 85.8650 0
M  V30 END ATOM
M  V30 BEGIN BOND
M  V30 1 1   1 131
M  V30 2 1   1   6
M  V30 3 1   1 256
M  V30 4 1   1 255
M  V30 5 1   1   5
M  V30 6 1   1 130
M  V30 7 1   2  65
M  V30 8 1   2   4
M  V30 9 1   2  66
M  V30 10 1   2   3
M  V30 11 1   2 192
M  V30 12 1   2 193
M  V30 13 1   3  15
M  V30 14 1   3   7
M  V30 15 1   4  18
M  V30 16 1   4  16
M  V30 17 1   5  54
M  V30 18 1   5  49
M  V30 19 1   6  63
M  V30 20 1   6  56
M  V30 21 1   7   8
M  V30 22 1   7   9
M  V30 23 1   9  11
M  V30 24 1   9  10
M  V30 25 1  11  13
M  V30 26 1  11  12
M  V30 27 1  13  15
M  V30 28 1  13  14
M  V30 29 1  15  16
M  V30 30 1  16  17
M  V30 31 1  18  19
M  V30 32 1  18  26
M  V30 33 1  19  21
M  V30 34 1  19  20
M  V30 35 1  21  22
M  V30 36 1  21  23
M  V30 37 1  23  28
M  V30 38 1  23  24
M  V30 39 1  24  25
M  V30 40 1  24  26
M  V30 41 1  26  27
M  V30 42 1  28  36
M  V30 43 1  28  29
M  V30 44 1  29  31
M  V30 45 1  29  30
M  V30 46 1  31  33
M  V30 47 1  31  32
M  V30 48 1  33  34
M  V30 49 1  33  35
M  V30 50 1  35  43
M  V30 51 1  35  36
M  V30 52 1  36  37
M  V30 53 1  37  39
M  V30 54 1  37  38
M  V30 55 1  39  41
M  V30 56 1  39  40
M  V30 57 1  41  43
M  V30 58 1  41  42
M  V30 59 1  43  44
M  V30 60 1  44  52
M  V30 61 1  44  45
M  V30 62 1  45  47
M  V30 63 1  45  46
M  V30 64 1  47  49
M  V30 65 1  47  48
M  V30 66 1  49  50
M  V30 67 1  50  51
M  V30 68 1  50  52
M  V30 69 1  52  53
M  V30 70 1  54  56
M  V30 71 1  54  55
M  V30 72 1  56  57
M  V30 73 1  57  59
M  V30 74 1  57  58
M  V30 75 1  59  60
M  V30 76 1  59  61
M  V30 77 1  61  62
M  V30 78 1  61  63
M  V30 79 1  63  64
M  V30 80 1  65  77
M  V30 81 1  65  69
M  V30 82 1  66  78
M  V30 83 1  66  80
M  V30 84 1  67 252
M  V30 85 1  67 111
M  V30 86 1  67 116
M  V30 87 1  68 252
M  V30 88 1  68 125
M  V30 89 1  68 118
M  V30 90 1  69  71
M  V30 91 1  69  70
M  V30 92 1  71  73
M  V30 93 1  71  72
M  V30 94 1  73  74
M  V30 95 1  73  75
M  V30 96 1  75  76
M  V30 97 1  75  77
M  V30 98 1  77  78
M  V30 99 1  78  79
M  V30 100 1  80  88
M  V30 101 1  80  81
M  V30 102 1  81  83
M  V30 103 1  81  82
M  V30 104 1  83  85
M  V30 105 1  83  84
M  V30 106 1  85  86
M  V30 107 1  85  90
M  V30 108 1  86  87
M  V30 109 1  86  88
M  V30 110 1  88  89
M  V30 111 1  90  91
M  V30 112 1  90  98
M  V30 113 1  91  92
M  V30 114 1  91  93
M  V30 115 1  93  94
M  V30 116 1  93  95
M  V30 117 1  95  96
M  V30 118 1  95  97
M  V30 119 1  97  98
M  V30 120 1  97 105
M  V30 121 1  98  99
M  V30 122 1  99 100
M  V30 123 1  99 101
M  V30 124 1 101 103
M  V30 125 1 101 102
M  V30 126 1 103 105
M  V30 127 1 103 104
M  V30 128 1 105 106
M  V30 129 1 106 107
M  V30 130 1 106 114
M  V30 131 1 107 108
M  V30 132 1 107 109
M  V30 133 1 109 110
M  V30 134 1 109 111
M  V30 135 1 111 112
M  V30 136 1 112 114
M  V30 137 1 112 113
M  V30 138 1 114 115
M  V30 139 1 116 118
M  V30 140 1 116 117
M  V30 141 1 118 119
M  V30 142 1 119 121
M  V30 143 1 119 120
M  V30 144 1 121 123
M  V30 145 1 121 122
M  V30 146 1 123 125
M  V30 147 1 123 124
M  V30 148 1 125 126
M  V30 149 1 127 190
M  V30 150 1 127 129
M  V30 151 1 127 191
M  V30 152 1 127 128
M  V30 153 1 127 317
M  V30 154 1 127 318
M  V30 155 1 128 140
M  V30 156 1 128 132
M  V30 157 1 129 143
M  V30 158 1 129 141
M  V30 159 1 130 179
M  V30 160 1 130 174
M  V30 161 1 131 188
M  V30 162 1 131 181
M  V30 163 1 132 133
M  V30 164 1 132 134
M  V30 165 1 134 136
M  V30 166 1 134 135
M  V30 167 1 136 138
M  V30 168 1 136 137
M  V30 169 1 138 140
M  V30 170 1 138 139
M  V30 171 1 140 141
M  V30 172 1 141 142
M  V30 173 1 143 144
M  V30 174 1 143 151
M  V30 175 1 144 146
M  V30 176 1 144 145
M  V30 177 1 146 147
M  V30 178 1 146 148
M  V30 179 1 148 153
M  V30 180 1 148 149
M  V30 181 1 149 150
M  V30 182 1 149 151
M  V30 183 1 151 152
M  V30 184 1 153 161
M  V30 185 1 153 154
M  V30 186 1 154 156
M  V30 187 1 154 155
M  V30 188 1 156 158
M  V30 189 1 156 157
M  V30 190 1 158 159
M  V30 191 1 158 160
M  V30 192 1 160 168
M  V30 193 1 160 161
M  V30 194 1 161 162
M  V30 195 1 162 164
M  V30 196 1 162 163
M  V30 197 1 164 166
M  V30 198 1 164 165
M  V30 199 1 166 168
M  V30 200 1 166 167
M  V30 201 1 168 169
M  V30 202 1 169 177
M  V30 203 1 169 170
M  V30 204 1 170 172
M  V30 205 1 170 171
M  V30 206 1 172 174
M  V30 207 1 172 173
M  V30 208 1 174 175
M  V30 209 1 175 176
M  V30 210 1 175 177
M  V30 211 1 177 178
M  V30 212 1 179 181
M  V30 213 1 179 180
M  V30 214 1 181 182
M  V30 215 1 182 184
M  V30 216 1 182 183
M  V30 217 1 184 185
M  V30 218 1 184 186
M  V30 219 1 186 187
M  V30 220 1 186 188
M  V30 221 1 188 189
M  V30 222 1 190 202
M  V30 223 1 190 194
M  V30 224 1 191 203
M  V30 225 1 191 205
M  V30 226 1 192 236
M  V30 227 1 192 241
M  V30 228 1 193 250
M  V30 229 1 193 243
M  V30 230 1 194 196
M  V30 231 1 194 195
M  V30 232 1 196 198
M  V30 233 1 196 197
M  V30 234 1 198 199
M  V30 235 1 198 200
M  V30 236 1 200 201
M  V30 237 1 200 202
M  V30 238 1 202 203
M  V30 239 1 203 204
M  V30 240 1 205 213
M  V30 241 1 205 206
M  V30 242 1 206 208
M  V30 243 1 206 207
M  V30 244 1 208 210
M  V30 245 1 208 209
M  V30 246 1 210 211
M  V30 247 1 210 215
M  V30 248 1 211 212
M  V30 249 1 211 213
M  V30 250 1 213 214
M  V30 251 1 215 216
M  V30 252 1 215 223
M  V30 253 1 216 217
M  V30 254 1 216 218
M  V30 255 1 218 219
M  V30 256 1 218 220
M  V30 257 1 220 221
M  V30 258 1 220 222
M  V30 259 1 222 223
M  V30 260 1 222 230
M  V30 261 1 223 224
M  V30 262 1 224 225
M  V30 263 1 224 226
M  V30 264 1 226 228
M  V30 265 1 226 227
M  V30 266 1 228 230
M  V30 267 1 228 229
M  V30 268 1 230 231
M  V30 269 1 231 232
M  V30 270 1 231 239
M  V30 271 1 232 233
M  V30 272 1 232 234
M  V30 273 1 234 235
M  V30 274 1 234 236
M  V30 275 1 236 237
M  V30 276 1 237 239
M  V30 277 1 237 238
M  V30 278 1 239 240
M  V30 279 1 241 243
M  V30 280 1 241 242
M  V30 281 1 243 244
M  V30 282 1 244 246
M  V30 283 1 244 245
M  V30 284 1 246 248
M  V30 285 1 246 247
M  V30 286 1 248 250
M  V30 287 1 248 249
M  V30 288 1 250 251
M  V30 289 1 252 315
M  V30 290 1 252 254
M  V30 291 1 252 316
M  V30 292 1 252 253
M  V30 293 1 253 265
M  V30 294 1 253 257
M  V30 295 1 254 268
M  V30 296 1 254 266
M  V30 297 1 255 304
M  V30 298 1 255 299
M  V30 299 1 256 313
M  V30 300 1 256 306
M  V30 301 1 257 258
M  V30 302 1 257 259
M  V30 303 1 259 261
M  V30 304 1 259 260
M  V30 305 1 261 263
M  V30 306 1 261 262
M  V30 307 1 263 265
M  V30 308 1 263 264
M  V30 309 1 265 266
M  V30 310 1 266 267
M  V30 311 1 268 269
M  V30 312 1 268 276
M  V30 313 1 269 271
M  V30 314 1 269 270
M  V30 315 1 271 272
M  V30 316 1 271 273
M  V30 317 1 273 278
M  V30 318 1 273 274
M  V30 319 1 274 275
M  V30 320 1 274 276
M  V30 321 1 276 277
M  V30 322 1 278 286
M  V30 323 1 278 279
M  V30 324 1 279 281
M  V30 325 1 279 280
M  V30 326 1 281 283
M  V30 327 1 281 282
M  V30 328 1 283 284
M  V30 329 1 283 285
M  V30 330 1 285 293
M  V30 331 1 285 286
M  V30 332 1 286 287
M  V30 333 1 287 289
M  V30 334 1 287 288
M  V30 335 1 289 291
M  V30 336 1 289 290
M  V30 337 1 291 293
M  V30 338 1 291 292
M  V30 339 1 293 294
M  V30 340 1 294 302
M  V30 341 1 294 295
M  V30 342 1 295 297
M  V30 343 1 295 296
M  V30 344 1 297 299
M  V30 345 1 297 298
M  V30 346 1 299 300
M  V30 347 1 300 301
M  V30 348 1 300 302
M  V30 349 1 302 303
M  V30 350 1 304 306
M  V30 351 1 304 305
M  V30 352 1 306 307
M  V30 353 1 307 309
M  V30 354 1 307 308
M  V30 355 1 309 310
M  V30 356 1 309 311
M  V30 357 1 311 312
M  V30 358 1 311 313
M  V30 359 1 313 314
M  V30 360 1 315 327
M  V30 361 1 315 319
M  V30 362 1 316 328
M  V30 363 1 316 330
M  V30 364 1 317 361
M  V30 365 1 317 366
M  V30 366 1 318 375
M  V30 367 1 318 368
M  V30 368 1 319 321
M  V30 369 1 319 320
M  V30 370 1 321 323
M  V30 371 1 321 322
M  V30 372 1 323 324
M  V30 373 1 323 325
M  V30 374 1 325 326
M  V30 375 1 325 327
M  V30 376 1 327 328
M  V30 377 1 328 329
M  V30 378 1 330 338
M  V30 379 1 330 331
M  V30 380 1 331 333
M  V30 381 1 331 332
M  V30 382 1 333 335
M  V30 383 1 333 334
M  V30 384 1 335 336
M  V30 385 1 335 340
M  V30 386 1 336 337
M  V30 387 1 336 338
M  V30 388 1 338 339
M  V30 389 1 340 341
M  V30 390 1 340 348
M  V30 391 1 341 342
M  V30 392 1 341 343
M  V30 393 1 343 344
M  V30 394 1 343 345
M  V30 395 1 345 346
M  V30 396 1 345 347
M  V30 397 1 347 348
M  V30 398 1 347 355
M  V30 399 1 348 349
M  V30 400 1 349 350
M  V30 401 1 349 351
M  V30 402 1 351 353
M  V30 403 1 351 352
M  V30 404 1 353 355
M  V30 405 1 353 354
M  V30 406 1 355 356
M  V30 407 1 356 357
M  V30 408 1 356 364
M  V30 409 1 357 358
M  V30 410 1 357 359
M  V30 411 1 359 360
M  V30 412 1 359 361
M  V30 413 1 361 362
M  V30 414 1 362 364
M  V30 415 1 362 363
M  V30 416 1 364 365
M  V30 417 1 366 368
M  V30 418 1 366 367
M  V30 419 1 368 369
M  V30 420 1 369 371
M  V30 421 1 369 370
M  V30 422 1 371 373
M  V30 423 1 371 372
M  V30 424 1 373 375
M  V30 425 1 373 374
M  V30 426 1 375 376
M  V30 427 1 M   END
M  V30 END BOND
M  V30 END CTAB

