     RDKit          3D

  0  0  0  0  0  0  0  0  0  0999 V3000
M  V30 BEGIN CTAB
M  V30 COUNTS 152 168 0 0 0
M  V30 BEGIN ATOM
M  V30 1 C 6.5540 2.1540 12.1550 0
M  V30 2 N 7.8710 2.3700 12.2080 0
M  V30 3 N 5.8330 1.8820 13.2440 0
M  V30 4 N 5.8620 2.1930 11.0140 0
M  V30 5 C 4.6120 1.9280 11.4020 0
M  V30 6 C 4.5900 1.7340 12.7780 0
M  V30 7 C 3.4350 1.8330 10.6670 0
M  V30 8 C 3.3920 1.4450 13.4200 0
M  V30 9 H 3.3760 1.3100 14.3610 0
M  V30 10 C 2.2140 1.3500 12.6870 0
M  V30 11 C 2.2380 1.5440 11.3090 0
M  V30 12 O 1.0040 1.1730 13.2980 0
M  V30 13 O 1.0180 1.4500 10.5840 0
M  V30 14 H 3.4510 1.9680 9.7280 0
M  V30 15 C 0.4890 2.6640 10.1130 0
M  V30 16 C 1.0530 3.3090 9.0180 0
M  V30 17 C -0.6440 3.1880 10.7210 0
M  V30 18 H 1.8270 2.9500 8.6020 0
M  V30 19 C 0.4840 4.4820 8.5350 0
M  V30 20 C -0.6500 5.0090 9.1450 0
M  V30 21 O 1.0120 5.0720 7.4210 0
M  V30 22 C -1.2130 4.3610 10.2370 0
M  V30 23 C -1.2110 6.2450 8.5860 0
M  V30 24 H -1.9870 4.7210 10.6540 0
M  V30 25 C -1.2700 2.4240 11.9050 0
M  V30 26 C 2.2260 5.7590 7.6070 0
M  V30 27 C 2.1730 7.1480 7.5700 0
M  V30 28 C 3.4430 5.1140 7.7870 0
M  V30 29 C 3.3390 7.8910 7.7110 0
M  V30 30 O 0.9180 7.8230 7.4770 0
M  V30 31 H 3.3040 8.8400 7.6870 0
M  V30 32 C 4.5570 7.2450 7.8920 0
M  V30 33 C 4.6090 5.8570 7.9290 0
M  V30 34 N 5.7960 7.6780 8.0510 0
M  V30 35 N 5.8780 5.5340 8.1100 0
M  V30 36 H 3.4780 4.1650 7.8120 0
M  V30 37 C 6.6240 6.6380 8.1870 0
M  V30 38 N 7.9340 6.6580 8.4440 0
M  V30 39 C 0.3900 8.2290 8.6640 0
M  V30 40 C -0.6790 7.5560 9.2410 0
M  V30 41 C 0.9080 9.3650 9.2750 0
M  V30 42 C -1.2320 8.0180 10.4300 0
M  V30 43 H -1.9640 7.5570 10.8230 0
M  V30 44 C -0.7140 9.1540 11.0410 0
M  V30 45 C 0.3560 9.8270 10.4640 0
M  V30 46 C -1.2660 9.6370 12.3840 0
M  V30 47 O 0.9160 10.9580 11.0700 0
M  V30 48 H 1.6400 9.8260 8.8810 0
M  V30 49 C 2.1830 10.7780 11.7130 0
M  V30 50 C 2.2480 10.5210 13.0780 0
M  V30 51 C 3.3340 10.7150 10.9360 0
M  V30 52 C 3.4680 10.2000 13.6640 0
M  V30 53 O 1.0830 10.6450 13.7740 0
M  V30 54 H 3.5130 10.0240 14.5970 0
M  V30 55 C 4.6190 10.1380 12.8870 0
M  V30 56 C 4.5520 10.3950 11.5240 0
M  V30 57 N 5.9390 9.8450 13.2200 0
M  V30 58 N 5.8570 10.2580 11.0070 0
M  V30 59 H 3.2870 10.8910 10.0040 0
M  V30 60 C 6.6050 9.9360 12.0650 0
M  V30 61 N 7.9200 9.7240 11.9590 0
M  V30 62 C 0.5100 9.4620 14.2140 0
M  V30 63 C -0.5930 8.9140 13.5740 0
M  V30 64 C 1.0560 8.8290 15.3280 0
M  V30 65 C -1.1540 7.7310 14.0450 0
M  V30 66 H -1.9100 7.3560 13.6080 0
M  V30 67 C -0.6100 7.0970 15.1570 0
M  V30 68 C 0.4950 7.6460 15.7970 0
M  V30 69 C -1.2770 5.8060 15.7330 0
M  V30 70 O 1.0690 7.0410 16.9500 0
M  V30 71 H 1.8100 9.2040 15.7640 0
M  V30 72 C 2.2170 6.3150 16.8030 0
M  V30 73 C 2.1680 4.9270 16.8640 0
M  V30 74 C 3.4220 6.9570 16.5340 0
M  V30 75 C 3.3230 4.1810 16.6590 0
M  V30 76 O 0.9270 4.2900 16.8960 0
M  V30 77 H 3.2890 3.2330 16.7010 0
M  V30 78 C 4.5270 4.8220 16.3910 0
M  V30 79 C 4.5760 6.2110 16.3300 0
M  V30 80 N 5.7640 4.3800 16.1580 0
M  V30 81 N 5.8400 6.5490 16.0620 0
M  V30 82 H 3.4550 7.9050 16.4930 0
M  V30 83 C -0.6570 4.5700 15.0520 0
M  V30 84 C 0.3800 3.8830 15.6750 0
M  V30 85 C -1.1520 4.1230 13.8330 0
M  V30 86 C 0.9230 2.7510 15.0740 0
M  V30 87 H 1.6320 2.2830 15.4990 0
M  V30 88 C 0.4270 2.3070 13.8550 0
M  V30 89 C -0.6110 2.9910 13.2340 0
M  V30 90 H -1.8610 4.5930 13.4080 0
M  V30 91 C 6.5640 5.4300 15.9570 0
M  V30 92 N 7.8710 5.3440 15.6960 0
M  V30 93 H -1.0100 1.4620 11.8210 0
M  V30 94 C -2.8130 2.5010 11.9050 0
M  V30 95 H -3.1660 2.0150 12.6930 0
M  V30 96 H -3.0950 3.4470 11.9770 0
M  V30 97 C -3.3950 1.8890 10.6260 0
M  V30 98 H -2.9540 2.3020 9.8420 0
M  V30 99 H -3.1910 0.9200 10.6110 0
M  V30 100 C -4.9020 2.0780 10.5030 0
M  V30 101 H -5.2010 1.7260 9.6280 0
M  V30 102 H -5.1080 3.0470 10.5270 0
M  V30 103 Cl -5.8030 1.2550 11.8050 0
M  V30 104 H -1.0510 5.7580 16.7060 0
M  V30 105 C -2.8100 5.7810 15.6110 0
M  V30 106 H -3.0670 5.9480 14.6710 0
M  V30 107 H -3.1440 4.8850 15.8660 0
M  V30 108 C -3.4630 6.8350 16.5070 0
M  V30 109 H -3.1750 6.6880 17.4430 0
M  V30 110 H -3.1470 7.7330 16.2330 0
M  V30 111 C -4.9860 6.8010 16.4440 0
M  V30 112 H -5.2760 7.0560 15.5320 0
M  V30 113 H -5.3510 7.4700 17.0750 0
M  V30 114 Cl -5.6620 5.1890 16.8420 0
M  V30 115 H -1.0130 10.6010 12.4630 0
M  V30 116 C -2.7970 9.5930 12.3520 0
M  V30 117 H -3.0990 8.6540 12.2740 0
M  V30 118 H -3.1250 10.0890 11.5620 0
M  V30 119 C -3.3830 10.2170 13.6300 0
M  V30 120 H -2.9400 9.8130 14.4190 0
M  V30 121 H -3.1860 11.1860 13.6370 0
M  V30 122 C -4.8970 10.0160 13.7550 0
M  V30 123 H -5.2020 10.3880 14.6190 0
M  V30 124 H -5.0930 9.0440 13.7590 0
M  V30 125 Cl -5.8200 10.7810 12.4400 0
M  V30 126 H -0.9000 6.2740 7.6360 0
M  V30 127 C -2.7510 6.3450 8.5220 0
M  V30 128 H -3.0000 7.2330 8.1630 0
M  V30 129 H -3.1150 6.2800 9.4410 0
M  V30 130 C -3.4140 5.2420 7.6410 0
M  V30 131 Cl -5.7430 6.5870 7.1180 0
M  V30 132 H -3.1170 5.3770 6.7060 0
M  V30 133 H -3.0670 4.3630 7.9360 0
M  V30 134 C -4.9180 5.1820 7.6530 0
M  V30 135 H -5.2110 4.9840 8.5770 0
M  V30 136 H -5.1990 4.4210 7.0840 0
M  V30 137 H 8.2920 2.3330 12.9800 0
M  V30 138 H 8.3180 2.5470 11.4710 0
M  V30 139 H 6.1110 1.8140 14.0770 0
M  V30 140 H 6.1580 2.3550 10.2010 0
M  V30 141 H 6.1870 4.7120 8.1690 0
M  V30 142 H 6.0370 8.5230 8.0660 0
M  V30 143 H 8.3670 5.9040 8.5770 0
M  V30 144 H 8.3640 7.4250 8.4810 0
M  V30 145 H 6.1190 10.3620 10.1740 0
M  V30 146 H 6.2630 9.6460 14.0130 0
M  V30 147 H 8.3150 9.7960 11.1760 0
M  V30 148 H 8.3900 9.5130 12.6720 0
M  V30 149 H 6.0120 3.5360 16.1390 0
M  V30 150 H 6.1450 7.3680 15.9690 0
M  V30 151 H 8.2590 4.5560 15.6470 0
M  V30 152 H 8.3440 6.0760 15.5730 0
M  V30 END ATOM
M  V30 BEGIN BOND
M  V30 1 1   1   4
M  V30 2 1   1   2
M  V30 3 1   1   3
M  V30 4 1   2 138
M  V30 5 1   2 137
M  V30 6 1   3   6
M  V30 7 1   3 139
M  V30 8 1   4 140
M  V30 9 1   4   5
M  V30 10 1   5   7
M  V30 11 1   5   6
M  V30 12 1   6   8
M  V30 13 1   7  14
M  V30 14 1   7  11
M  V30 15 1   8  10
M  V30 16 1   8   9
M  V30 17 1  10  11
M  V30 18 1  10  12
M  V30 19 1  11  13
M  V30 20 1  12  88
M  V30 21 1  13  15
M  V30 22 1  15  16
M  V30 23 1  15  17
M  V30 24 1  16  19
M  V30 25 1  16  18
M  V30 26 1  17  22
M  V30 27 1  17  25
M  V30 28 1  19  21
M  V30 29 1  19  20
M  V30 30 1  20  23
M  V30 31 1  20  22
M  V30 32 1  21  26
M  V30 33 1  22  24
M  V30 34 1  23 126
M  V30 35 1  23 127
M  V30 36 1  23  40
M  V30 37 1  25  93
M  V30 38 1  25  94
M  V30 39 1  25  89
M  V30 40 1  26  27
M  V30 41 1  26  28
M  V30 42 1  27  30
M  V30 43 1  27  29
M  V30 44 1  28  36
M  V30 45 1  28  33
M  V30 46 1  29  31
M  V30 47 1  29  32
M  V30 48 1  30  39
M  V30 49 1  32  33
M  V30 50 1  32  34
M  V30 51 1  33  35
M  V30 52 1  34 142
M  V30 53 1  34  37
M  V30 54 1  35 141
M  V30 55 1  35  37
M  V30 56 1  37  38
M  V30 57 1  38 144
M  V30 58 1  38 143
M  V30 59 1  39  40
M  V30 60 1  39  41
M  V30 61 1  40  42
M  V30 62 1  41  48
M  V30 63 1  41  45
M  V30 64 1  42  43
M  V30 65 1  42  44
M  V30 66 1  44  45
M  V30 67 1  44  46
M  V30 68 1  45  47
M  V30 69 1  46 116
M  V30 70 1  46 115
M  V30 71 1  46  63
M  V30 72 1  47  49
M  V30 73 1  49  51
M  V30 74 1  49  50
M  V30 75 1  50  52
M  V30 76 1  50  53
M  V30 77 1  51  59
M  V30 78 1  51  56
M  V30 79 1  52  55
M  V30 80 1  52  54
M  V30 81 1  53  62
M  V30 82 1  55  56
M  V30 83 1  55  57
M  V30 84 1  56  58
M  V30 85 1  57  60
M  V30 86 1  57 146
M  V30 87 1  58 145
M  V30 88 1  58  60
M  V30 89 1  60  61
M  V30 90 1  61 147
M  V30 91 1  61 148
M  V30 92 1  62  63
M  V30 93 1  62  64
M  V30 94 1  63  65
M  V30 95 1  64  71
M  V30 96 1  64  68
M  V30 97 1  65  66
M  V30 98 1  65  67
M  V30 99 1  67  69
M  V30 100 1  67  68
M  V30 101 1  68  70
M  V30 102 1  69  83
M  V30 103 1  69 105
M  V30 104 1  69 104
M  V30 105 1  70  72
M  V30 106 1  72  74
M  V30 107 1  72  73
M  V30 108 1  73  75
M  V30 109 1  73  76
M  V30 110 1  74  79
M  V30 111 1  74  82
M  V30 112 1  75  78
M  V30 113 1  75  77
M  V30 114 1  76  84
M  V30 115 1  78  80
M  V30 116 1  78  79
M  V30 117 1  79  81
M  V30 118 1  80  91
M  V30 119 1  80 149
M  V30 120 1  81  91
M  V30 121 1  81 150
M  V30 122 1  83  85
M  V30 123 1  83  84
M  V30 124 1  84  86
M  V30 125 1  85  89
M  V30 126 1  85  90
M  V30 127 1  86  88
M  V30 128 1  86  87
M  V30 129 1  88  89
M  V30 130 1  91  92
M  V30 131 1  92 152
M  V30 132 1  92 151
M  V30 133 1  94  97
M  V30 134 1  94  96
M  V30 135 1  94  95
M  V30 136 1  97  98
M  V30 137 1  97 100
M  V30 138 1  97  99
M  V30 139 1 100 101
M  V30 140 1 100 102
M  V30 141 1 100 103
M  V30 142 1 105 106
M  V30 143 1 105 107
M  V30 144 1 105 108
M  V30 145 1 108 110
M  V30 146 1 108 111
M  V30 147 1 108 109
M  V30 148 1 111 112
M  V30 149 1 111 114
M  V30 150 1 111 113
M  V30 151 1 116 118
M  V30 152 1 116 117
M  V30 153 1 116 119
M  V30 154 1 119 121
M  V30 155 1 119 122
M  V30 156 1 119 120
M  V30 157 1 122 125
M  V30 158 1 122 124
M  V30 159 1 122 123
M  V30 160 1 127 130
M  V30 161 1 127 128
M  V30 162 1 127 129
M  V30 163 1 130 132
M  V30 164 1 130 134
M  V30 165 1 130 133
M  V30 166 1 131 134
M  V30 167 1 134 136
M  V30 168 1 134 135
M  V30 169 1 M   END
M  V30 END BOND
M  V30 END CTAB

