     RDKit          3D

  0  0  0  0  0  0  0  0  0  0999 V3000
M  V30 BEGIN CTAB
M  V30 COUNTS 64 68 0 0 0
M  V30 BEGIN ATOM
M  V30 1 O 5.4670 7.2930 11.7260 0
M  V30 2 O 5.5140 9.2500 16.1170 0
M  V30 3 C 4.8610 8.1520 12.6290 0
M  V30 4 C 5.4550 8.2570 13.8930 0
M  V30 5 C 4.9150 9.1720 14.8200 0
M  V30 6 C 3.7830 9.9540 14.4690 0
M  V30 7 C 3.3110 9.7320 13.2470 0
M  V30 8 C 3.7830 8.9190 12.2250 0
M  V30 9 C 3.1690 10.9030 15.5190 0
M  V30 10 C 1.6600 10.9250 15.4090 0
M  V30 11 H 6.1930 7.7360 14.1170 0
M  V30 12 H 2.5320 10.2020 13.0430 0
M  V30 13 H 3.3930 10.5430 16.4020 0
M  V30 14 H 1.3050 10.0970 15.7400 0
M  V30 15 H 1.4070 11.0370 14.4910 0
M  V30 16 H 1.3120 11.6530 15.9300 0
M  V30 17 C 3.1690 8.8240 10.9030 0
M  V30 18 C 3.7830 9.8740 9.9540 0
M  V30 19 C 4.9150 9.5230 9.1720 0
M  V30 20 O 5.5140 8.2260 9.2500 0
M  V30 21 C 5.4550 10.4500 8.2570 0
M  V30 22 C 4.8610 11.7140 8.1520 0
M  V30 23 O 5.4670 12.6170 7.2930 0
M  V30 24 C 3.7830 12.1180 8.9190 0
M  V30 25 C 3.3110 11.0960 9.7320 0
M  V30 26 H 2.5320 11.3000 10.2020 0
M  V30 27 C 3.1690 13.4400 8.8240 0
M  V30 28 C 3.7830 14.3890 9.8740 0
M  V30 29 C 4.9150 15.1710 9.5230 0
M  V30 30 O 5.5140 15.0930 8.2260 0
M  V30 31 C 5.4550 16.0860 10.4500 0
M  V30 32 C 4.8610 16.1910 11.7140 0
M  V30 33 O 5.4670 17.0500 12.6170 0
M  V30 34 C 3.7830 15.4240 12.1180 0
M  V30 35 C 3.3110 14.6110 11.0960 0
M  V30 36 H 2.5320 14.1410 11.3000 0
M  V30 37 C 3.1690 15.5190 13.4400 0
M  V30 38 C 3.7830 14.4690 14.3890 0
M  V30 39 C 4.9150 14.8200 15.1710 0
M  V30 40 O 5.5140 16.1170 15.0930 0
M  V30 41 C 5.4550 13.8930 16.0860 0
M  V30 42 C 4.8610 12.6290 16.1910 0
M  V30 43 O 5.4670 11.7260 17.0500 0
M  V30 44 C 3.7830 12.2250 15.4240 0
M  V30 45 C 3.3110 13.2470 14.6110 0
M  V30 46 H 2.5320 13.0430 14.1410 0
M  V30 47 H 6.1930 14.1170 16.6070 0
M  V30 48 C 1.6600 15.4090 13.4180 0
M  V30 49 H 1.3050 15.7400 14.2460 0
M  V30 50 H 1.4070 14.4910 13.3060 0
M  V30 51 H 1.3120 15.9300 12.6900 0
M  V30 52 H 3.3930 16.4020 13.8000 0
M  V30 53 H 6.1930 16.6070 10.2260 0
M  V30 54 C 1.6600 13.4180 8.9340 0
M  V30 55 H 1.3050 14.2460 8.6030 0
M  V30 56 H 1.4070 13.3060 9.8520 0
M  V30 57 H 1.3120 12.6900 8.4130 0
M  V30 58 H 3.3930 13.8000 7.9410 0
M  V30 59 H 6.1930 10.2260 7.7360 0
M  V30 60 C 1.6600 8.9340 10.9250 0
M  V30 61 H 1.3050 8.6030 10.0970 0
M  V30 62 H 1.4070 9.8520 11.0370 0
M  V30 63 H 1.3120 8.4130 11.6530 0
M  V30 64 H 3.3930 7.9410 10.5430 0
M  V30 END ATOM
M  V30 BEGIN BOND
M  V30 1 1   1   3
M  V30 2 1   2   5
M  V30 3 1   3   8
M  V30 4 1   3   4
M  V30 5 1   4  11
M  V30 6 1   4   5
M  V30 7 1   5   6
M  V30 8 1   6   7
M  V30 9 1   6   9
M  V30 10 1   7   8
M  V30 11 1   7  12
M  V30 12 1   8  17
M  V30 13 1   9  10
M  V30 14 1   9  44
M  V30 15 1   9  13
M  V30 16 1  10  15
M  V30 17 1  10  14
M  V30 18 1  10  16
M  V30 19 1  17  18
M  V30 20 1  17  64
M  V30 21 1  17  60
M  V30 22 1  18  19
M  V30 23 1  18  25
M  V30 24 1  19  21
M  V30 25 1  19  20
M  V30 26 1  21  59
M  V30 27 1  21  22
M  V30 28 1  22  23
M  V30 29 1  22  24
M  V30 30 1  24  27
M  V30 31 1  24  25
M  V30 32 1  25  26
M  V30 33 1  27  58
M  V30 34 1  27  54
M  V30 35 1  27  28
M  V30 36 1  28  29
M  V30 37 1  28  35
M  V30 38 1  29  30
M  V30 39 1  29  31
M  V30 40 1  31  53
M  V30 41 1  31  32
M  V30 42 1  32  34
M  V30 43 1  32  33
M  V30 44 1  34  35
M  V30 45 1  34  37
M  V30 46 1  35  36
M  V30 47 1  37  48
M  V30 48 1  37  52
M  V30 49 1  37  38
M  V30 50 1  38  45
M  V30 51 1  38  39
M  V30 52 1  39  40
M  V30 53 1  39  41
M  V30 54 1  41  42
M  V30 55 1  41  47
M  V30 56 1  42  44
M  V30 57 1  42  43
M  V30 58 1  44  45
M  V30 59 1  45  46
M  V30 60 1  48  51
M  V30 61 1  48  50
M  V30 62 1  48  49
M  V30 63 1  54  57
M  V30 64 1  54  55
M  V30 65 1  54  56
M  V30 66 1  60  61
M  V30 67 1  60  62
M  V30 68 1  60  63
M  V30 69 1 M   END
M  V30 END BOND
M  V30 END CTAB

