     RDKit          3D

  0  0  0  0  0  0  0  0  0  0999 V3000
M  V30 BEGIN CTAB
M  V30 COUNTS 776 876 0 0 0
M  V30 BEGIN ATOM
M  V30 1 Co 15.6740 10.0790 1.7850 0
M  V30 2 Co 9.3300 1.3250 4.9780 0
M  V30 3 Co 11.6150 10.1540 -8.5870 0
M  V30 4 Co 5.0290 1.3880 -5.3540 0
M  V30 5 N 10.5910 11.7990 -9.5020 0
M  V30 6 C 9.6620 11.7060 -10.5340 0
M  V30 7 H 9.4410 10.8710 -10.8830 0
M  V30 8 C 9.0680 12.8550 -11.0440 0
M  V30 9 H 8.4460 12.7890 -11.7300 0
M  V30 10 C 9.4010 14.0980 -10.5180 0
M  V30 11 C 10.3260 14.1950 -9.4860 0
M  V30 12 H 10.5500 15.0260 -9.1370 0
M  V30 13 C 10.9220 13.0450 -8.9800 0
M  V30 14 C 8.7350 15.3480 -11.0520 0
M  V30 15 H 8.1640 15.7240 -10.3650 0
M  V30 16 H 9.4140 16.0040 -11.2690 0
M  V30 17 O 8.0050 15.0950 -12.1400 0
M  V30 18 H 7.4080 14.5640 -11.9510 0
M  V30 19 N 13.4240 12.1140 -6.6440 0
M  V30 20 N 12.3860 11.8730 -7.5830 0
M  V30 21 C 11.8680 13.1270 -8.0010 0
M  V30 22 C 12.5860 14.1440 -7.3180 0
M  V30 23 H 12.4510 15.0600 -7.4070 0
M  V30 24 C 13.5470 13.5190 -6.4790 0
M  V30 25 H 14.1500 13.9540 -5.9210 0
M  V30 26 C 14.1080 11.1550 -5.8410 0
M  V30 27 H 14.9760 11.5200 -5.6080 0
M  V30 28 H 14.2580 10.3630 -6.3750 0
M  V30 29 N 16.7270 8.8370 3.1830 0
M  V30 30 C 17.5310 9.3920 4.1710 0
M  V30 31 H 17.6390 10.3160 4.2230 0
M  V30 32 C 18.1750 8.5690 5.0860 0
M  V30 33 H 18.7150 8.9380 5.7490 0
M  V30 34 C 18.0160 7.1910 5.0140 0
M  V30 35 C 17.2110 6.6350 4.0220 0
M  V30 36 H 17.1040 5.7110 3.9740 0
M  V30 37 C 16.5650 7.4580 3.1110 0
M  V30 38 C 18.7470 6.2630 6.0660 0
M  V30 39 H 19.6720 6.5340 6.1660 0
M  V30 40 H 18.3130 6.3290 6.9290 0
M  V30 41 O 18.6790 4.9660 5.5920 0
M  V30 42 H 19.0660 4.9150 4.8740 0
M  V30 43 N 14.1010 7.4860 0.4940 0
M  V30 44 N 14.9830 8.1300 1.4010 0
M  V30 45 C 15.6770 7.1280 2.1240 0
M  V30 46 C 15.2260 5.8630 1.6660 0
M  V30 47 H 15.5160 5.0360 1.9710 0
M  V30 48 C 14.2510 6.0840 0.6580 0
M  V30 49 H 13.7910 5.4240 0.1890 0
M  V30 50 C 13.2800 8.1960 -0.4500 0
M  V30 51 H 12.9940 9.0270 -0.0440 0
M  V30 52 H 12.4860 7.6680 -0.6260 0
M  V30 53 C 13.4180 10.7550 -4.5880 0
M  V30 54 C 12.2130 11.3530 -4.2310 0
M  V30 55 H 11.8280 11.9890 -4.7890 0
M  V30 56 C 11.5850 10.9990 -3.0430 0
M  V30 57 H 10.7820 11.3990 -2.8060 0
M  V30 58 C 12.1610 10.0480 -2.2100 0
M  V30 59 H 11.7400 9.8110 -1.4130 0
M  V30 60 C 13.3650 9.4500 -2.5660 0
M  V30 61 C 13.9940 9.8030 -3.7540 0
M  V30 62 C 15.1950 9.2060 -4.1100 0
M  V30 63 H 15.6160 9.4420 -4.9060 0
M  V30 64 C 15.7710 8.2500 -3.2760 0
M  V30 65 H 16.5740 7.8510 -3.5130 0
M  V30 66 C 15.1430 7.8970 -2.0880 0
M  V30 67 H 15.5280 7.2600 -1.5300 0
M  V30 68 C 13.9390 8.4990 -1.7320 0
M  V30 69 N 16.5460 11.8770 2.5610 0
M  V30 70 C 17.7260 12.5170 2.2040 0
M  V30 71 H 18.1780 12.2610 1.4290 0
M  V30 72 C 18.2330 13.5390 2.9990 0
M  V30 73 H 19.0210 13.9690 2.7580 0
M  V30 74 C 17.5590 13.9230 4.1510 0
M  V30 75 C 16.3770 13.2820 4.5120 0
M  V30 76 H 15.9270 13.5390 5.2830 0
M  V30 77 C 15.8710 12.2610 3.7170 0
M  V30 78 C 18.1590 14.9480 5.0940 0
M  V30 79 H 17.5280 15.6740 5.2310 0
M  V30 80 H 18.3300 14.5360 5.9570 0
M  V30 81 O 19.2860 15.4290 4.6010 0
M  V30 82 H 19.1300 15.8370 3.9100 0
M  V30 83 N 13.0850 10.2380 3.8700 0
M  V30 84 N 14.3150 10.7080 3.3360 0
M  V30 85 C 14.7970 11.7410 4.1830 0
M  V30 86 C 13.8640 11.9080 5.2430 0
M  V30 87 H 13.9370 12.5210 5.9370 0
M  V30 88 C 12.8100 10.9800 5.0460 0
M  V30 89 H 12.0630 10.8790 5.5960 0
M  V30 90 C 12.4020 9.1470 3.3640 0
M  V30 91 H 12.5440 9.1240 2.4050 0
M  V30 92 H 11.4550 9.2990 3.5090 0
M  V30 93 N 8.5200 -0.1320 3.6410 0
M  V30 94 C 7.3490 -0.8580 3.8140 0
M  V30 95 H 6.8430 -0.7450 4.5850 0
M  V30 96 C 6.9310 -1.7550 2.8380 0
M  V30 97 H 6.1480 -2.2400 2.9550 0
M  V30 98 C 7.6880 -1.9260 1.6820 0
M  V30 99 C 8.8590 -1.2000 1.5090 0
M  V30 100 H 9.3690 -1.3120 0.7350 0
M  V30 101 C 9.2770 -0.3030 2.4850 0
M  V30 102 C 7.2020 -2.9160 0.5540 0
M  V30 103 H 6.7650 -2.4030 -0.1450 0
M  V30 104 H 7.9760 -3.3510 0.1650 0
M  V30 105 O 6.3300 -3.8790 1.0120 0
M  V30 106 H 5.6370 -3.5210 1.2730 0
M  V30 107 N 12.0260 1.7670 3.0790 0
M  V30 108 N 10.7270 1.2660 3.3480 0
M  V30 109 C 10.3980 0.3260 2.3360 0
M  V30 110 C 11.4960 0.2450 1.4370 0
M  V30 111 H 11.5490 -0.2950 0.6820 0
M  V30 112 C 12.5030 1.1380 1.8950 0
M  V30 113 H 13.3300 1.2810 1.4930 0
M  V30 114 C 12.6880 2.8070 3.7740 0
M  V30 115 H 13.6450 2.7330 3.6410 0
M  V30 116 H 12.5110 2.7260 4.7250 0
M  V30 117 C 12.7550 7.7690 3.9300 0
M  V30 118 C 13.6840 7.7110 4.9580 0
M  V30 119 H 14.0150 8.4950 5.3310 0
M  V30 120 C 14.1220 6.4760 5.4310 0
M  V30 121 H 14.7460 6.4370 6.1180 0
M  V30 122 C 13.6310 5.3040 4.8720 0
M  V30 123 H 13.9230 4.4800 5.1870 0
M  V30 124 C 12.6990 5.3640 3.8410 0
M  V30 125 C 12.2610 6.5960 3.3700 0
M  V30 126 C 11.3290 6.6550 2.3400 0
M  V30 127 H 11.0370 7.4780 2.0230 0
M  V30 128 C 10.8360 5.4820 1.7810 0
M  V30 129 H 10.2120 5.5210 1.0920 0
M  V30 130 C 11.2730 4.2480 2.2520 0
M  V30 131 H 10.9430 3.4630 1.8790 0
M  V30 132 C 12.2050 4.1900 3.2840 0
M  V30 133 N 10.1540 2.9430 6.1060 0
M  V30 134 C 11.1230 2.8420 7.0980 0
M  V30 135 H 11.4450 2.0070 7.3460 0
M  V30 136 C 11.6040 3.9870 7.7200 0
M  V30 137 H 12.2510 3.9180 8.3860 0
M  V30 138 C 11.1190 5.2380 7.3500 0
M  V30 139 C 10.1510 5.3390 6.3550 0
M  V30 140 H 9.8260 6.1730 6.1060 0
M  V30 141 C 9.6700 4.1930 5.7330 0
M  V30 142 C 11.6240 6.4840 8.0330 0
M  V30 143 H 11.8640 7.1320 7.3500 0
M  V30 144 H 10.9020 6.8640 8.5590 0
M  V30 145 O 12.6730 6.2940 8.8240 0
M  V30 146 H 13.3020 6.0100 8.3820 0
M  V30 147 N 7.1110 3.3510 3.4120 0
M  V30 148 N 8.1920 3.0250 4.2710 0
M  V30 149 C 8.7200 4.2320 4.7930 0
M  V30 150 C 7.9680 5.3110 4.2550 0
M  V30 151 H 8.1010 6.2120 4.4320 0
M  V30 152 C 6.9740 4.7640 3.4000 0
M  V30 153 H 6.3440 5.2490 2.9150 0
M  V30 154 C 6.4350 2.3880 2.5370 0
M  V30 155 H 6.3250 1.5530 3.0230 0
M  V30 156 H 5.5470 2.7260 2.3320 0
M  V30 157 N 3.8580 0.0040 -6.5760 0
M  V30 158 C 2.9030 0.3920 -7.5110 0
M  V30 159 H 2.7340 1.2930 -7.6520 0
M  V30 160 C 2.2050 -0.5710 -8.2300 0
M  V30 161 H 1.5670 -0.3110 -8.8560 0
M  V30 162 C 2.4560 -1.9180 -8.0130 0
M  V30 163 C 3.4120 -2.3060 -7.0820 0
M  V30 164 H 3.5810 -3.2110 -6.9370 0
M  V30 165 C 4.1090 -1.3470 -6.3590 0
M  V30 166 C 1.6800 -3.0130 -8.8520 0
M  V30 167 H 0.7750 -3.1100 -8.5190 0
M  V30 168 H 1.6410 -2.7570 -9.7830 0
M  V30 169 O 2.3790 -4.2050 -8.7030 0
M  V30 170 H 3.0230 -4.2130 -9.2130 0
M  V30 171 N 6.6670 -0.9630 -3.9180 0
M  V30 172 N 5.7070 -0.5010 -4.8530 0
M  V30 173 C 5.1440 -1.6310 -5.5040 0
M  V30 174 C 5.7540 -2.7920 -4.9660 0
M  V30 175 H 5.5710 -3.6690 -5.2150 0
M  V30 176 C 6.6940 -2.3840 -3.9860 0
M  V30 177 H 7.2340 -2.9430 -3.4770 0
M  V30 178 C 7.4380 -0.2370 -2.9990 0
M  V30 179 H 7.7460 0.5790 -3.4240 0
M  V30 180 H 8.2200 -0.7610 -2.7620 0
M  V30 181 C 7.1310 2.1120 1.2810 0
M  V30 182 C 8.3730 2.6910 1.0440 0
M  V30 183 H 8.7470 3.2650 1.6700 0
M  V30 184 C 9.0580 2.4070 -0.1320 0
M  V30 185 H 9.8890 2.7920 -0.2890 0
M  V30 186 C 8.5030 1.5450 -1.0720 0
M  V30 187 H 8.9590 1.3550 -1.8590 0
M  V30 188 C 7.2570 0.9690 -0.8340 0
M  V30 189 C 6.5730 1.2530 0.3420 0
M  V30 190 C 5.3320 0.6760 0.5780 0
M  V30 191 H 4.8730 0.8660 1.3650 0
M  V30 192 C 4.7740 -0.1820 -0.3610 0
M  V30 193 H 3.9410 -0.5710 -0.2010 0
M  V30 194 C 5.4570 -0.4700 -1.5340 0
M  V30 195 H 5.0870 -1.0440 -2.1640 0
M  V30 196 C 6.7030 0.1090 -1.7740 0
M  V30 197 N 3.5940 1.4560 -3.8220 0
M  V30 198 C 2.4410 0.6830 -3.7580 0
M  V30 199 H 2.2440 0.0850 -4.4400 0
M  V30 200 C 1.5840 0.8040 -2.6700 0
M  V30 201 H 0.8130 0.2830 -2.6290 0
M  V30 202 C 1.8780 1.6970 -1.6500 0
M  V30 203 C 3.0310 2.4730 -1.7140 0
M  V30 204 H 3.2270 3.0710 -1.0280 0
M  V30 205 C 3.8880 2.3530 -2.8020 0
M  V30 206 C 0.9320 1.8480 -0.4820 0
M  V30 207 H 1.4070 1.5720 0.3170 0
M  V30 208 H 0.7360 2.7950 -0.3810 0
M  V30 209 O -0.2360 1.2000 -0.4900 0
M  V30 210 H -0.1010 0.3960 -0.5500 0
M  V30 211 N 7.1530 3.4710 -3.7540 0
M  V30 212 N 5.9620 2.7180 -3.9500 0
M  V30 213 C 5.1140 2.9430 -2.8380 0
M  V30 214 C 5.7760 3.8320 -1.9510 0
M  V30 215 H 5.4430 4.1470 -1.1400 0
M  V30 216 C 7.0380 4.1580 -2.5170 0
M  V30 217 H 7.6740 4.7210 -2.1440 0
M  V30 218 C 8.2030 3.6420 -4.7050 0
M  V30 219 H 8.2840 2.8420 -5.2470 0
M  V30 220 H 9.0410 3.7780 -4.2390 0
M  V30 221 N 13.2490 10.3940 -10.0160 0
M  V30 222 C 14.4670 11.0650 -10.0560 0
M  V30 223 H 14.6850 11.6750 -9.3860 0
M  V30 224 C 15.3580 10.8250 -11.0960 0
M  V30 225 H 16.1730 11.2750 -11.1200 0
M  V30 226 C 15.0330 9.9160 -12.0960 0
M  V30 227 C 13.8170 9.2480 -12.0550 0
M  V30 228 H 13.5990 8.6390 -12.7260 0
M  V30 229 C 12.9230 9.4850 -11.0160 0
M  V30 230 C 16.1150 9.4890 -13.1630 0
M  V30 231 H 16.2890 8.5340 -13.1350 0
M  V30 232 H 15.8500 9.7370 -14.0630 0
M  V30 233 O 17.2160 10.2190 -12.7340 0
M  V30 234 H 17.4180 9.9900 -11.9750 0
M  V30 235 N 9.9660 7.9200 -10.4460 0
M  V30 236 N 11.0900 8.7550 -10.2050 0
M  V30 237 C 11.9620 8.6500 -11.3210 0
M  V30 238 C 11.3740 7.7500 -12.2520 0
M  V30 239 H 11.7350 7.5010 -13.0710 0
M  V30 240 C 10.1420 7.2990 -11.7100 0
M  V30 241 H 9.5530 6.7050 -12.1120 0
M  V30 242 C 9.0340 7.6600 -9.4620 0
M  V30 243 H 8.1920 7.4390 -9.8920 0
M  V30 244 H 8.8950 8.4720 -8.9520 0
M  V30 245 C 7.9140 4.8420 -5.6000 0
M  V30 246 C 6.7170 5.5370 -5.4680 0
M  V30 247 H 6.1220 5.3110 -4.7890 0
M  V30 248 C 6.4130 6.5690 -6.3470 0
M  V30 249 H 5.6130 7.0350 -6.2550 0
M  V30 250 C 7.3050 6.9070 -7.3590 0
M  V30 251 H 7.1010 7.5980 -7.9450 0
M  V30 252 C 8.4990 6.2110 -7.4910 0
M  V30 253 C 8.8040 5.1770 -6.6130 0
M  V30 254 C 10.0020 4.4800 -6.7480 0
M  V30 255 H 10.2050 3.7890 -6.1580 0
M  V30 256 C 10.8920 4.8180 -7.7600 0
M  V30 257 H 11.6900 4.3520 -7.8480 0
M  V30 258 C 10.5870 5.8510 -8.6390 0
M  V30 259 H 11.1810 6.0800 -9.3140 0
M  V30 260 C 9.3910 6.5500 -8.5030 0
M  V30 261 N 17.1940 9.7650 0.2930 0
M  V30 262 C 18.2910 8.9110 0.3410 0
M  V30 263 H 18.4330 8.3820 1.0920 0
M  V30 264 C 19.1750 8.8480 -0.7310 0
M  V30 265 H 19.9060 8.2780 -0.6950 0
M  V30 266 C 18.9600 9.6400 -1.8510 0
M  V30 267 C 17.8650 10.4950 -1.9030 0
M  V30 268 H 17.7230 11.0270 -2.6540 0
M  V30 269 C 16.9830 10.5570 -0.8310 0
M  V30 270 C 19.9420 9.6130 -3.0510 0
M  V30 271 H 19.4440 9.4930 -3.8740 0
M  V30 272 H 20.4170 10.4600 -3.1030 0
M  V30 273 O 20.8150 8.6120 -2.8940 0
M  V30 274 H 21.3580 8.6230 -3.5050 0
M  V30 275 N 13.8800 12.0750 -0.1930 0
M  V30 276 N 14.9570 11.2010 0.1080 0
M  V30 277 C 15.8860 11.2630 -0.9630 0
M  V30 278 C 15.3820 12.1760 -1.9270 0
M  V30 279 H 15.7920 12.4090 -2.7300 0
M  V30 280 C 14.1430 12.6770 -1.4490 0
M  V30 281 H 13.5990 13.2940 -1.8870 0
M  V30 282 C 12.7630 12.2220 0.7070 0
M  V30 283 H 12.6180 11.3840 1.1760 0
M  V30 284 H 11.9640 12.4200 0.1970 0
M  V30 285 C 11.4500 15.7130 5.7690 0
M  V30 286 H 12.3350 15.6580 6.1660 0
M  V30 287 H 11.4020 16.5550 5.2910 0
M  V30 288 C 12.9880 13.2900 1.6860 0
M  V30 289 C 14.0990 14.1250 1.6260 0
M  V30 290 H 14.7150 14.0320 0.9350 0
M  V30 291 C 14.2880 15.1030 2.5930 0
M  V30 292 H 15.0290 15.6620 2.5530 0
M  V30 293 C 13.3670 15.2510 3.6250 0
M  V30 294 H 13.4900 15.9030 4.2750 0
M  V30 295 C 12.2560 14.4140 3.6870 0
M  V30 296 C 12.0680 13.4360 2.7180 0
M  V30 297 C 10.9570 12.6030 2.7780 0
M  V30 298 H 10.8300 11.9470 2.1320 0
M  V30 299 C 10.0360 12.7460 3.8100 0
M  V30 300 H 9.2920 12.1870 3.8500 0
M  V30 301 C 10.2240 13.7250 4.7810 0
M  V30 302 H 9.6090 13.8220 5.4680 0
M  V30 303 C 11.3360 14.5600 4.7170 0
M  V30 304 N 12.5090 8.5960 -7.4590 0
M  V30 305 C 13.7030 7.9630 -7.7840 0
M  V30 306 H 14.1720 8.2160 -8.5430 0
M  V30 307 C 14.1930 6.9460 -6.9690 0
M  V30 308 H 14.9890 6.5230 -7.1860 0
M  V30 309 C 13.4900 6.5690 -5.8290 0
M  V30 310 C 12.2970 7.2060 -5.5080 0
M  V30 311 H 11.8270 6.9500 -4.7450 0
M  V30 312 C 11.8060 8.2190 -6.3190 0
M  V30 313 C 14.0060 5.4080 -4.9460 0
M  V30 314 H 14.1070 5.7270 -4.0350 0
M  V30 315 H 13.3440 4.6980 -4.9380 0
M  V30 316 O 15.1780 4.9080 -5.3670 0
M  V30 317 H 15.0880 4.5930 -6.1180 0
M  V30 318 N 8.8250 10.0710 -6.7440 0
M  V30 319 N 10.1600 9.7300 -7.0900 0
M  V30 320 C 10.6460 8.8170 -6.1140 0
M  V30 321 C 9.6110 8.6000 -5.1670 0
M  V30 322 H 9.6620 8.0450 -4.4200 0
M  V30 323 C 8.4860 9.3760 -5.5560 0
M  V30 324 H 7.6720 9.4190 -5.1100 0
M  V30 325 C 8.1260 11.1820 -7.2740 0
M  V30 326 H 7.1820 10.9950 -7.1660 0
M  V30 327 H 8.2990 11.1900 -8.2300 0
M  V30 328 C 8.3570 12.5580 -6.7800 0
M  V30 329 C 9.3560 12.6800 -5.8210 0
M  V30 330 H 9.8050 11.9270 -5.5200 0
M  V30 331 C 9.6850 13.9350 -5.3190 0
M  V30 332 H 10.3540 14.0200 -4.6770 0
M  V30 333 C 9.0120 15.0640 -5.7730 0
M  V30 334 H 9.2320 15.9030 -5.4360 0
M  V30 335 C 8.0130 14.9410 -6.7290 0
M  V30 336 C 7.6870 13.6880 -7.2340 0
M  V30 337 C 6.6840 13.5620 -8.1900 0
M  V30 338 H 6.4650 12.7270 -8.5270 0
M  V30 339 C 6.0140 14.6920 -8.6430 0
M  V30 340 H 5.3460 14.6100 -9.2850 0
M  V30 341 C 6.3410 15.9460 -8.1410 0
M  V30 342 H 5.8930 16.7030 -8.4460 0
M  V30 343 C 7.3430 16.0700 -7.1820 0
M  V30 344 N 7.1020 17.8990 6.8970 0
M  V30 345 C 5.9290 18.6400 6.9410 0
M  V30 346 H 5.7760 19.3080 6.3150 0
M  V30 347 C 4.9800 18.3840 7.9250 0
M  V30 348 H 4.1920 18.8850 7.9570 0
M  V30 349 C 5.2050 17.3860 8.8640 0
M  V30 350 C 6.3790 16.6450 8.8200 0
M  V30 351 H 6.5300 15.9730 9.4500 0
M  V30 352 C 7.3270 16.9010 7.8360 0
M  V30 353 C 4.1080 17.0410 9.9120 0
M  V30 354 H 4.4820 17.1300 10.8030 0
M  V30 355 H 3.8400 16.1170 9.7950 0
M  V30 356 O 3.0210 17.8330 9.8070 0
M  V30 357 H 3.2550 18.6210 9.7910 0
M  V30 358 N 10.5230 15.7550 6.7960 0
M  V30 359 N 9.3010 16.4540 6.6200 0
M  V30 360 C 8.4440 16.1240 7.7080 0
M  V30 361 C 9.1420 15.2200 8.5510 0
M  V30 362 H 8.8140 14.8430 9.3380 0
M  V30 363 C 10.4250 14.9910 7.9890 0
M  V30 364 H 11.0840 14.4390 8.3420 0
M  V30 365 N 3.1630 19.5990 -6.0100 0
M  V30 366 C 1.8970 20.0110 -5.6080 0
M  V30 367 H 1.5050 19.6420 -4.8490 0
M  V30 368 C 1.2150 20.9780 -6.3430 0
M  V30 369 H 0.3690 21.2530 -6.0740 0
M  V30 370 C 1.8010 21.5290 -7.4750 0
M  V30 371 C 3.0660 21.1170 -7.8760 0
M  V30 372 H 3.4560 21.4900 -8.6350 0
M  V30 373 C 3.7460 20.1540 -7.1420 0
M  V30 374 C 1.0260 22.5930 -8.3020 0
M  V30 375 H 1.1280 23.4580 -7.8800 0
M  V30 376 H 0.0810 22.3670 -8.2980 0
M  V30 377 O 1.4450 22.6780 -9.5750 0
M  V30 378 H 2.2160 22.9580 -9.5910 0
M  V30 379 N 6.8480 18.4930 -7.0780 0
M  V30 380 N 5.5410 18.6910 -6.6000 0
M  V30 381 C 5.0090 19.5450 -7.3180 0
M  V30 382 C 5.9280 20.0340 -8.3860 0
M  V30 383 H 5.7780 20.7250 -8.9880 0
M  V30 384 C 7.0380 19.2340 -8.2780 0
M  V30 385 H 7.7580 19.1880 -8.8640 0
M  V30 386 C 7.7280 17.4640 -6.6160 0
M  V30 387 H 8.6370 17.6730 -6.8850 0
M  V30 388 H 7.7040 17.4290 -5.6480 0
M  V30 389 Co -2.0370 9.3340 -1.7850 0
M  V30 390 Co 4.3070 18.0880 -4.9780 0
M  V30 391 Co 2.0220 9.2590 8.5870 0
M  V30 392 Co 8.6090 18.0250 5.3540 0
M  V30 393 N 3.0470 7.6140 9.5020 0
M  V30 394 C 3.9750 7.7070 10.5340 0
M  V30 395 H 4.1970 8.5420 10.8830 0
M  V30 396 C 4.5700 6.5580 11.0440 0
M  V30 397 H 5.1910 6.6240 11.7300 0
M  V30 398 C 4.2370 5.3150 10.5180 0
M  V30 399 C 3.3110 5.2180 9.4860 0
M  V30 400 H 3.0870 4.3870 9.1370 0
M  V30 401 C 2.7150 6.3670 8.9800 0
M  V30 402 C 4.9020 4.0650 11.0520 0
M  V30 403 H 5.4730 3.6880 10.3650 0
M  V30 404 H 4.2230 3.4090 11.2690 0
M  V30 405 O 5.6330 4.3170 12.1400 0
M  V30 406 H 6.2290 4.8490 11.9510 0
M  V30 407 N 0.2140 7.2990 6.6440 0
M  V30 408 N 1.2510 7.5400 7.5830 0
M  V30 409 C 1.7700 6.2860 8.0010 0
M  V30 410 C 1.0520 5.2690 7.3180 0
M  V30 411 H 1.1860 4.3520 7.4070 0
M  V30 412 C 0.0900 5.8940 6.4790 0
M  V30 413 H -0.5130 5.4590 5.9210 0
M  V30 414 C -0.4710 8.2580 5.8410 0
M  V30 415 H -1.3380 7.8930 5.6080 0
M  V30 416 H -0.6200 9.0500 6.3750 0
M  V30 417 N -3.0900 10.5760 -3.1830 0
M  V30 418 C -3.8930 10.0210 -4.1710 0
M  V30 419 H -4.0020 9.0970 -4.2230 0
M  V30 420 C -4.5380 10.8440 -5.0860 0
M  V30 421 H -5.0770 10.4750 -5.7490 0
M  V30 422 C -4.3790 12.2220 -5.0140 0
M  V30 423 C -3.5740 12.7780 -4.0220 0
M  V30 424 H -3.4670 13.7020 -3.9740 0
M  V30 425 C -2.9280 11.9540 -3.1110 0
M  V30 426 C -5.1100 13.1500 -6.0660 0
M  V30 427 H -6.0350 12.8780 -6.1660 0
M  V30 428 H -4.6750 13.0840 -6.9290 0
M  V30 429 O -5.0410 14.4470 -5.5920 0
M  V30 430 H -5.4290 14.4980 -4.8740 0
M  V30 431 N -0.4630 11.9270 -0.4940 0
M  V30 432 N -1.3450 11.2830 -1.4010 0
M  V30 433 C -2.0390 12.2840 -2.1240 0
M  V30 434 C -1.5890 13.5500 -1.6660 0
M  V30 435 H -1.8790 14.3770 -1.9710 0
M  V30 436 C -0.6140 13.3290 -0.6580 0
M  V30 437 H -0.1540 13.9890 -0.1890 0
M  V30 438 C 0.3580 11.2170 0.4500 0
M  V30 439 H 0.6430 10.3860 0.0440 0
M  V30 440 H 1.1510 11.7450 0.6260 0
M  V30 441 C 0.2200 8.6580 4.5880 0
M  V30 442 C 1.4240 8.0600 4.2310 0
M  V30 443 H 1.8100 7.4230 4.7890 0
M  V30 444 C 2.0530 8.4140 3.0430 0
M  V30 445 H 2.8560 8.0140 2.8060 0
M  V30 446 C 1.4760 9.3650 2.2100 0
M  V30 447 H 1.8980 9.6020 1.4130 0
M  V30 448 C 0.2720 9.9630 2.5660 0
M  V30 449 C -0.3560 9.6100 3.7540 0
M  V30 450 C -1.5580 10.2070 4.1100 0
M  V30 451 H -1.9790 9.9700 4.9060 0
M  V30 452 C -2.1340 11.1620 3.2760 0
M  V30 453 H -2.9370 11.5620 3.5130 0
M  V30 454 C -1.5060 11.5160 2.0880 0
M  V30 455 H -1.8910 12.1520 1.5300 0
M  V30 456 C -0.3010 10.9140 1.7320 0
M  V30 457 N -2.9080 7.5360 -2.5610 0
M  V30 458 C -4.0890 6.8950 -2.2040 0
M  V30 459 H -4.5410 7.1520 -1.4290 0
M  V30 460 C -4.5950 5.8740 -2.9990 0
M  V30 461 H -5.3830 5.4430 -2.7580 0
M  V30 462 C -3.9220 5.4900 -4.1510 0
M  V30 463 C -2.7400 6.1310 -4.5120 0
M  V30 464 H -2.2890 5.8740 -5.2830 0
M  V30 465 C -2.2330 7.1520 -3.7170 0
M  V30 466 C -4.5220 4.4650 -5.0940 0
M  V30 467 H -3.8910 3.7390 -5.2310 0
M  V30 468 H -4.6930 4.8770 -5.9570 0
M  V30 469 O -5.6490 3.9840 -4.6010 0
M  V30 470 H -5.4920 3.5760 -3.9100 0
M  V30 471 N 0.5520 9.1750 -3.8700 0
M  V30 472 N -0.6780 8.7050 -3.3360 0
M  V30 473 C -1.1590 7.6720 -4.1830 0
M  V30 474 C -0.2270 7.5050 -5.2430 0
M  V30 475 H -0.3000 6.8920 -5.9370 0
M  V30 476 C 0.8270 8.4330 -5.0460 0
M  V30 477 H 1.5740 8.5340 -5.5960 0
M  V30 478 C 1.2350 10.2660 -3.3640 0
M  V30 479 H 1.0940 10.2890 -2.4050 0
M  V30 480 H 2.1830 10.1140 -3.5090 0
M  V30 481 N 5.1170 19.5450 -3.6410 0
M  V30 482 C 6.2890 20.2710 -3.8140 0
M  V30 483 H 6.7940 20.1580 -4.5850 0
M  V30 484 C 6.7070 21.1680 -2.8380 0
M  V30 485 H 7.4890 21.6530 -2.9550 0
M  V30 486 C 5.9500 21.3390 -1.6820 0
M  V30 487 C 4.7780 20.6130 -1.5090 0
M  V30 488 H 4.2680 20.7250 -0.7350 0
M  V30 489 C 4.3600 19.7160 -2.4850 0
M  V30 490 C 6.4350 22.3290 -0.5540 0
M  V30 491 H 6.8720 21.8160 0.1450 0
M  V30 492 H 5.6610 22.7640 -0.1650 0
M  V30 493 O 7.3070 23.2920 -1.0120 0
M  V30 494 H 8.0010 22.9340 -1.2730 0
M  V30 495 N 1.6110 17.6460 -3.0790 0
M  V30 496 N 2.9100 18.1470 -3.3480 0
M  V30 497 C 3.2400 19.0870 -2.3360 0
M  V30 498 C 2.1410 19.1680 -1.4370 0
M  V30 499 H 2.0890 19.7080 -0.6820 0
M  V30 500 C 1.1340 18.2750 -1.8950 0
M  V30 501 H 0.3080 18.1320 -1.4930 0
M  V30 502 C 0.9490 16.6060 -3.7740 0
M  V30 503 H -0.0080 16.6800 -3.6410 0
M  V30 504 H 1.1260 16.6870 -4.7250 0
M  V30 505 C 0.8830 11.6440 -3.9300 0
M  V30 506 C -0.0470 11.7020 -4.9580 0
M  V30 507 H -0.3780 10.9180 -5.3310 0
M  V30 508 C -0.4840 12.9370 -5.4310 0
M  V30 509 H -1.1080 12.9760 -6.1180 0
M  V30 510 C 0.0070 14.1090 -4.8720 0
M  V30 511 H -0.2860 14.9320 -5.1870 0
M  V30 512 C 0.9380 14.0490 -3.8410 0
M  V30 513 C 1.3760 12.8170 -3.3700 0
M  V30 514 C 2.3080 12.7580 -2.3400 0
M  V30 515 H 2.6000 11.9350 -2.0230 0
M  V30 516 C 2.8020 13.9310 -1.7810 0
M  V30 517 H 3.4250 13.8920 -1.0920 0
M  V30 518 C 2.3640 15.1650 -2.2520 0
M  V30 519 H 2.6950 15.9500 -1.8790 0
M  V30 520 C 1.4330 15.2220 -3.2840 0
M  V30 521 N 3.4840 16.4700 -6.1060 0
M  V30 522 C 2.5150 16.5710 -7.0980 0
M  V30 523 H 2.1920 17.4060 -7.3460 0
M  V30 524 C 2.0330 15.4250 -7.7200 0
M  V30 525 H 1.3860 15.4950 -8.3860 0
M  V30 526 C 2.5180 14.1750 -7.3500 0
M  V30 527 C 3.4860 14.0740 -6.3550 0
M  V30 528 H 3.8110 13.2400 -6.1060 0
M  V30 529 C 3.9670 15.2200 -5.7330 0
M  V30 530 C 2.0130 12.9290 -8.0330 0
M  V30 531 H 1.7740 12.2810 -7.3500 0
M  V30 532 H 2.7360 12.5480 -8.5590 0
M  V30 533 O 0.9650 13.1190 -8.8240 0
M  V30 534 H 0.3350 13.4030 -8.3820 0
M  V30 535 N 6.5260 16.0620 -3.4120 0
M  V30 536 N 5.4450 16.3880 -4.2710 0
M  V30 537 C 4.9180 15.1810 -4.7930 0
M  V30 538 C 5.6690 14.1010 -4.2550 0
M  V30 539 H 5.5360 13.2010 -4.4320 0
M  V30 540 C 6.6640 14.6490 -3.4000 0
M  V30 541 H 7.2930 14.1640 -2.9150 0
M  V30 542 C 7.2030 17.0250 -2.5370 0
M  V30 543 H 7.3120 17.8600 -3.0230 0
M  V30 544 H 8.0910 16.6870 -2.3320 0
M  V30 545 N 9.7790 19.4090 6.5760 0
M  V30 546 C 10.7340 19.0210 7.5110 0
M  V30 547 H 10.9030 18.1200 7.6520 0
M  V30 548 C 11.4320 19.9840 8.2300 0
M  V30 549 H 12.0700 19.7230 8.8560 0
M  V30 550 C 11.1810 21.3310 8.0130 0
M  V30 551 C 10.2250 21.7190 7.0820 0
M  V30 552 H 10.0570 22.6240 6.9370 0
M  V30 553 C 9.5280 20.7600 6.3590 0
M  V30 554 C 11.9570 22.4260 8.8520 0
M  V30 555 H 12.8620 22.5230 8.5190 0
M  V30 556 H 11.9960 22.1690 9.7830 0
M  V30 557 O 11.2580 23.6180 8.7030 0
M  V30 558 H 10.6140 23.6250 9.2130 0
M  V30 559 N 6.9710 20.3760 3.9180 0
M  V30 560 N 7.9310 19.9140 4.8530 0
M  V30 561 C 8.4930 21.0440 5.5040 0
M  V30 562 C 7.8830 22.2040 4.9660 0
M  V30 563 H 8.0660 23.0820 5.2150 0
M  V30 564 C 6.9430 21.7970 3.9860 0
M  V30 565 H 6.4030 22.3560 3.4770 0
M  V30 566 C 6.1990 19.6500 2.9990 0
M  V30 567 H 5.8910 18.8340 3.4240 0
M  V30 568 H 5.4170 20.1740 2.7620 0
M  V30 569 C 6.5060 17.3010 -1.2810 0
M  V30 570 C 5.2640 16.7220 -1.0440 0
M  V30 571 H 4.8900 16.1480 -1.6700 0
M  V30 572 C 4.5800 17.0060 0.1320 0
M  V30 573 H 3.7490 16.6210 0.2890 0
M  V30 574 C 5.1350 17.8680 1.0720 0
M  V30 575 H 4.6790 18.0580 1.8590 0
M  V30 576 C 6.3800 18.4440 0.8340 0
M  V30 577 C 7.0640 18.1600 -0.3420 0
M  V30 578 C 8.3060 18.7370 -0.5780 0
M  V30 579 H 8.7650 18.5470 -1.3650 0
M  V30 580 C 8.8640 19.5950 0.3610 0
M  V30 581 H 9.6960 19.9840 0.2010 0
M  V30 582 C 8.1810 19.8830 1.5340 0
M  V30 583 H 8.5500 20.4570 2.1640 0
M  V30 584 C 6.9350 19.3040 1.7740 0
M  V30 585 N 10.0430 17.9570 3.8220 0
M  V30 586 C 11.1960 18.7300 3.7580 0
M  V30 587 H 11.3930 19.3270 4.4400 0
M  V30 588 C 12.0530 18.6090 2.6700 0
M  V30 589 H 12.8250 19.1290 2.6290 0
M  V30 590 C 11.7590 17.7160 1.6500 0
M  V30 591 C 10.6060 16.9400 1.7140 0
M  V30 592 H 10.4110 16.3420 1.0280 0
M  V30 593 C 9.7490 17.0600 2.8020 0
M  V30 594 C 12.7050 17.5650 0.4820 0
M  V30 595 H 12.2300 17.8400 -0.3170 0
M  V30 596 H 12.9020 16.6170 0.3810 0
M  V30 597 O 13.8730 18.2130 0.4900 0
M  V30 598 H 13.7390 19.0170 0.5500 0
M  V30 599 N 6.4850 15.9420 3.7540 0
M  V30 600 N 7.6750 16.6950 3.9500 0
M  V30 601 C 8.5240 16.4700 2.8380 0
M  V30 602 C 7.8620 15.5810 1.9510 0
M  V30 603 H 8.1950 15.2660 1.1400 0
M  V30 604 C 6.5990 15.2550 2.5170 0
M  V30 605 H 5.9630 14.6920 2.1440 0
M  V30 606 C 5.4350 15.7710 4.7050 0
M  V30 607 H 5.3530 16.5710 5.2470 0
M  V30 608 H 4.5970 15.6350 4.2390 0
M  V30 609 N 0.3890 9.0190 10.0160 0
M  V30 610 C -0.8300 8.3480 10.0560 0
M  V30 611 H -1.0470 7.7380 9.3860 0
M  V30 612 C -1.7210 8.5880 11.0960 0
M  V30 613 H -2.5360 8.1380 11.1200 0
M  V30 614 C -1.3950 9.4970 12.0960 0
M  V30 615 C -0.1790 10.1650 12.0550 0
M  V30 616 H 0.0380 10.7740 12.7260 0
M  V30 617 C 0.7140 9.9280 11.0160 0
M  V30 618 C -2.4780 9.9240 13.1630 0
M  V30 619 H -2.6510 10.8790 13.1350 0
M  V30 620 H -2.2120 9.6750 14.0630 0
M  V30 621 O -3.5780 9.1940 12.7340 0
M  V30 622 H -3.7810 9.4230 11.9750 0
M  V30 623 N 3.6710 11.4920 10.4460 0
M  V30 624 N 2.5470 10.6580 10.2050 0
M  V30 625 C 1.6750 10.7620 11.3210 0
M  V30 626 C 2.2630 11.6630 12.2520 0
M  V30 627 H 1.9030 11.9120 13.0710 0
M  V30 628 C 3.4960 12.1140 11.7100 0
M  V30 629 H 4.0840 12.7080 12.1120 0
M  V30 630 C 4.6040 11.7530 9.4620 0
M  V30 631 H 5.4450 11.9740 9.8920 0
M  V30 632 H 4.7430 10.9410 8.9520 0
M  V30 633 C 5.7230 14.5710 5.6000 0
M  V30 634 C 6.9200 13.8760 5.4680 0
M  V30 635 H 7.5150 14.1010 4.7890 0
M  V30 636 C 7.2250 12.8440 6.3470 0
M  V30 637 H 8.0240 12.3780 6.2550 0
M  V30 638 C 6.3330 12.5060 7.3590 0
M  V30 639 H 6.5370 11.8150 7.9450 0
M  V30 640 C 5.1380 13.2020 7.4910 0
M  V30 641 C 4.8330 14.2350 6.6130 0
M  V30 642 C 3.6350 14.9320 6.7480 0
M  V30 643 H 3.4330 15.6230 6.1580 0
M  V30 644 C 2.7460 14.5950 7.7600 0
M  V30 645 H 1.9480 15.0600 7.8480 0
M  V30 646 C 3.0500 13.5620 8.6390 0
M  V30 647 H 2.4560 13.3330 9.3140 0
M  V30 648 C 4.2460 12.8630 8.5030 0
M  V30 649 N -3.5560 9.6480 -0.2930 0
M  V30 650 C -4.6530 10.5020 -0.3410 0
M  V30 651 H -4.7960 11.0300 -1.0920 0
M  V30 652 C -5.5380 10.5640 0.7310 0
M  V30 653 H -6.2680 11.1350 0.6950 0
M  V30 654 C -5.3230 9.7720 1.8510 0
M  V30 655 C -4.2270 8.9180 1.9030 0
M  V30 656 H -4.0850 8.3860 2.6540 0
M  V30 657 C -3.3450 8.8560 0.8310 0
M  V30 658 C -6.3040 9.8000 3.0510 0
M  V30 659 H -5.8070 9.9200 3.8740 0
M  V30 660 H -6.7790 8.9530 3.1030 0
M  V30 661 O -7.1780 10.8010 2.8940 0
M  V30 662 H -7.7210 10.7900 3.5050 0
M  V30 663 N -0.2430 7.3380 0.1930 0
M  V30 664 N -1.3200 8.2120 -0.1080 0
M  V30 665 C -2.2480 8.1500 0.9630 0
M  V30 666 C -1.7450 7.2370 1.9270 0
M  V30 667 H -2.1540 7.0040 2.7300 0
M  V30 668 C -0.5060 6.7360 1.4490 0
M  V30 669 H 0.0380 6.1190 1.8870 0
M  V30 670 C 0.8740 7.1910 -0.7070 0
M  V30 671 H 1.0200 8.0290 -1.1760 0
M  V30 672 H 1.6730 6.9930 -0.1970 0
M  V30 673 C 2.1870 3.7000 -5.7690 0
M  V30 674 H 1.3020 3.7540 -6.1660 0
M  V30 675 H 2.2360 2.8580 -5.2910 0
M  V30 676 C 0.6490 6.1230 -1.6860 0
M  V30 677 C -0.4620 5.2880 -1.6260 0
M  V30 678 H -1.0770 5.3810 -0.9350 0
M  V30 679 C -0.6500 4.3100 -2.5930 0
M  V30 680 H -1.3920 3.7510 -2.5530 0
M  V30 681 C 0.2700 4.1620 -3.6250 0
M  V30 682 H 0.1470 3.5100 -4.2750 0
M  V30 683 C 1.3820 4.9980 -3.6870 0
M  V30 684 C 1.5700 5.9770 -2.7180 0
M  V30 685 C 2.6800 6.8100 -2.7780 0
M  V30 686 H 2.8070 7.4660 -2.1320 0
M  V30 687 C 3.6010 6.6660 -3.8100 0
M  V30 688 H 4.3450 7.2250 -3.8500 0
M  V30 689 C 3.4140 5.6880 -4.7810 0
M  V30 690 H 4.0280 5.5910 -5.4680 0
M  V30 691 C 2.3020 4.8530 -4.7170 0
M  V30 692 N 1.1280 10.8170 7.4590 0
M  V30 693 C -0.0660 11.4500 7.7840 0
M  V30 694 H -0.5350 11.1970 8.5430 0
M  V30 695 C -0.5550 12.4670 6.9690 0
M  V30 696 H -1.3520 12.8900 7.1860 0
M  V30 697 C 0.1470 12.8440 5.8290 0
M  V30 698 C 1.3400 12.2070 5.5080 0
M  V30 699 H 1.8100 12.4630 4.7450 0
M  V30 700 C 1.8310 11.1930 6.3190 0
M  V30 701 C -0.3690 14.0040 4.9460 0
M  V30 702 H -0.4700 13.6860 4.0350 0
M  V30 703 H 0.2940 14.7150 4.9380 0
M  V30 704 O -1.5400 14.5050 5.3670 0
M  V30 705 H -1.4500 14.8200 6.1180 0
M  V30 706 N 4.8120 9.3410 6.7440 0
M  V30 707 N 3.4770 9.6830 7.0900 0
M  V30 708 C 2.9910 10.5960 6.1140 0
M  V30 709 C 4.0260 10.8130 5.1670 0
M  V30 710 H 3.9760 11.3680 4.4200 0
M  V30 711 C 5.1510 10.0360 5.5560 0
M  V30 712 H 5.9650 9.9940 5.1100 0
M  V30 713 C 5.5120 8.2310 7.2740 0
M  V30 714 H 6.4550 8.4170 7.1660 0
M  V30 715 H 5.3390 8.2230 8.2300 0
M  V30 716 C 5.2800 6.8550 6.7800 0
M  V30 717 C 4.2820 6.7320 5.8210 0
M  V30 718 H 3.8320 7.4860 5.5200 0
M  V30 719 C 3.9520 5.4780 5.3190 0
M  V30 720 H 3.2840 5.3930 4.6770 0
M  V30 721 C 4.6250 4.3480 5.7730 0
M  V30 722 H 4.4050 3.5100 5.4360 0
M  V30 723 C 5.6240 4.4720 6.7290 0
M  V30 724 C 5.9510 5.7250 7.2340 0
M  V30 725 C 6.9530 5.8510 8.1900 0
M  V30 726 H 7.1730 6.6860 8.5270 0
M  V30 727 C 7.6230 4.7210 8.6430 0
M  V30 728 H 8.2910 4.8030 9.2850 0
M  V30 729 C 7.2960 3.4670 8.1410 0
M  V30 730 H 7.7450 2.7100 8.4460 0
M  V30 731 C 6.2950 3.3430 7.1820 0
M  V30 732 N 6.5350 1.5140 -6.8970 0
M  V30 733 C 7.7080 0.7730 -6.9410 0
M  V30 734 H 7.8610 0.1050 -6.3150 0
M  V30 735 C 8.6570 1.0290 -7.9250 0
M  V30 736 H 9.4450 0.5280 -7.9570 0
M  V30 737 C 8.4320 2.0270 -8.8640 0
M  V30 738 C 7.2580 2.7680 -8.8200 0
M  V30 739 H 7.1070 3.4400 -9.4500 0
M  V30 740 C 6.3100 2.5120 -7.8360 0
M  V30 741 C 9.5300 2.3720 -9.9120 0
M  V30 742 H 9.1550 2.2830 -10.8030 0
M  V30 743 H 9.7970 3.2960 -9.7950 0
M  V30 744 O 10.6170 1.5800 -9.8070 0
M  V30 745 H 10.3820 0.7920 -9.7910 0
M  V30 746 N 3.1150 3.6570 -6.7960 0
M  V30 747 N 4.3360 2.9590 -6.6200 0
M  V30 748 C 5.1930 3.2890 -7.7080 0
M  V30 749 C 4.4950 4.1930 -8.5510 0
M  V30 750 H 4.8230 4.5700 -9.3380 0
M  V30 751 C 3.2120 4.4220 -7.9890 0
M  V30 752 H 2.5530 4.9740 -8.3420 0
M  V30 753 N 10.4740 -0.1860 6.0100 0
M  V30 754 C 11.7400 -0.5980 5.6080 0
M  V30 755 H 12.1320 -0.2290 4.8490 0
M  V30 756 C 12.4220 -1.5650 6.3430 0
M  V30 757 H 13.2680 -1.8400 6.0740 0
M  V30 758 C 11.8370 -2.1160 7.4750 0
M  V30 759 C 10.5710 -1.7040 7.8760 0
M  V30 760 H 10.1810 -2.0770 8.6350 0
M  V30 761 C 9.8920 -0.7420 7.1420 0
M  V30 762 C 12.6110 -3.1800 8.3020 0
M  V30 763 H 12.5090 -4.0460 7.8800 0
M  V30 764 H 13.5560 -2.9550 8.2980 0
M  V30 765 O 12.1930 -3.2650 9.5750 0
M  V30 766 H 11.4210 -3.5450 9.5910 0
M  V30 767 N 6.7900 0.9200 7.0780 0
M  V30 768 N 8.0970 0.7220 6.6000 0
M  V30 769 C 8.6290 -0.1320 7.3180 0
M  V30 770 C 7.7100 -0.6210 8.3860 0
M  V30 771 H 7.8590 -1.3120 8.9880 0
M  V30 772 C 6.6000 0.1790 8.2780 0
M  V30 773 H 5.8790 0.2250 8.8640 0
M  V30 774 C 5.9100 1.9490 6.6160 0
M  V30 775 H 5.0010 1.7390 6.8850 0
M  V30 776 H 5.9340 1.9840 5.6480 0
M  V30 END ATOM
M  V30 BEGIN BOND
M  V30 1 1   1 276
M  V30 2 1   1 261
M  V30 3 1   1  44
M  V30 4 1   1  69
M  V30 5 1   1  29
M  V30 6 1   1  84
M  V30 7 1   2 108
M  V30 8 1   2  93
M  V30 9 1   2 148
M  V30 10 1   2 753
M  V30 11 1   2 133
M  V30 12 1   2 768
M  V30 13 1   3 236
M  V30 14 1   3 221
M  V30 15 1   3   5
M  V30 16 1   3  20
M  V30 17 1   3 304
M  V30 18 1   3 319
M  V30 19 1   4 732
M  V30 20 1   4 747
M  V30 21 1   4 157
M  V30 22 1   4 172
M  V30 23 1   4 212
M  V30 24 1   4 197
M  V30 25 1   5   6
M  V30 26 1   5  13
M  V30 27 1   6   8
M  V30 28 1   6   7
M  V30 29 1   8   9
M  V30 30 1   8  10
M  V30 31 1  10  14
M  V30 32 1  10  11
M  V30 33 1  11  12
M  V30 34 1  11  13
M  V30 35 1  14  17
M  V30 36 1  14  16
M  V30 37 1  14  15
M  V30 38 1  17  18
M  V30 39 1  19  24
M  V30 40 1  19  26
M  V30 41 1  20  19
M  V30 42 1  20  21
M  V30 43 1  21  13
M  V30 44 1  21  22
M  V30 45 1  22  23
M  V30 46 1  22  24
M  V30 47 1  24  25
M  V30 48 1  26  28
M  V30 49 1  26  27
M  V30 50 1  26  53
M  V30 51 1  29  37
M  V30 52 1  29  30
M  V30 53 1  30  31
M  V30 54 1  30  32
M  V30 55 1  32  34
M  V30 56 1  32  33
M  V30 57 1  34  35
M  V30 58 1  34  38
M  V30 59 1  35  37
M  V30 60 1  35  36
M  V30 61 1  38  41
M  V30 62 1  38  39
M  V30 63 1  38  40
M  V30 64 1  41  42
M  V30 65 1  43  50
M  V30 66 1  43  48
M  V30 67 1  44  43
M  V30 68 1  44  45
M  V30 69 1  45  37
M  V30 70 1  45  46
M  V30 71 1  46  48
M  V30 72 1  46  47
M  V30 73 1  48  49
M  V30 74 1  50  68
M  V30 75 1  50  52
M  V30 76 1  50  51
M  V30 77 1  53  54
M  V30 78 1  53  61
M  V30 79 1  54  55
M  V30 80 1  54  56
M  V30 81 1  56  57
M  V30 82 1  56  58
M  V30 83 1  58  60
M  V30 84 1  58  59
M  V30 85 1  60  61
M  V30 86 1  60  68
M  V30 87 1  61  62
M  V30 88 1  62  63
M  V30 89 1  62  64
M  V30 90 1  64  65
M  V30 91 1  64  66
M  V30 92 1  66  68
M  V30 93 1  66  67
M  V30 94 1  69  70
M  V30 95 1  69  77
M  V30 96 1  70  71
M  V30 97 1  70  72
M  V30 98 1  72  73
M  V30 99 1  72  74
M  V30 100 1  74  75
M  V30 101 1  74  78
M  V30 102 1  75  77
M  V30 103 1  75  76
M  V30 104 1  78  81
M  V30 105 1  78  79
M  V30 106 1  78  80
M  V30 107 1  81  82
M  V30 108 1  83  90
M  V30 109 1  83  88
M  V30 110 1  84  83
M  V30 111 1  84  85
M  V30 112 1  85  77
M  V30 113 1  85  86
M  V30 114 1  86  88
M  V30 115 1  86  87
M  V30 116 1  88  89
M  V30 117 1  90  91
M  V30 118 1  90  92
M  V30 119 1  90 117
M  V30 120 1  93 101
M  V30 121 1  93  94
M  V30 122 1  94  96
M  V30 123 1  94  95
M  V30 124 1  96  98
M  V30 125 1  96  97
M  V30 126 1  98 102
M  V30 127 1  98  99
M  V30 128 1  99 100
M  V30 129 1  99 101
M  V30 130 1 102 103
M  V30 131 1 102 104
M  V30 132 1 102 105
M  V30 133 1 105 106
M  V30 134 1 107 112
M  V30 135 1 107 114
M  V30 136 1 108 107
M  V30 137 1 108 109
M  V30 138 1 109 101
M  V30 139 1 109 110
M  V30 140 1 110 111
M  V30 141 1 110 112
M  V30 142 1 112 113
M  V30 143 1 114 132
M  V30 144 1 114 115
M  V30 145 1 114 116
M  V30 146 1 117 125
M  V30 147 1 117 118
M  V30 148 1 118 119
M  V30 149 1 118 120
M  V30 150 1 120 122
M  V30 151 1 120 121
M  V30 152 1 122 124
M  V30 153 1 122 123
M  V30 154 1 124 132
M  V30 155 1 124 125
M  V30 156 1 125 126
M  V30 157 1 126 128
M  V30 158 1 126 127
M  V30 159 1 128 129
M  V30 160 1 128 130
M  V30 161 1 130 131
M  V30 162 1 130 132
M  V30 163 1 133 141
M  V30 164 1 133 134
M  V30 165 1 134 135
M  V30 166 1 134 136
M  V30 167 1 136 138
M  V30 168 1 136 137
M  V30 169 1 138 139
M  V30 170 1 138 142
M  V30 171 1 139 141
M  V30 172 1 139 140
M  V30 173 1 142 143
M  V30 174 1 142 144
M  V30 175 1 142 145
M  V30 176 1 145 146
M  V30 177 1 147 154
M  V30 178 1 147 152
M  V30 179 1 148 147
M  V30 180 1 148 149
M  V30 181 1 149 141
M  V30 182 1 149 150
M  V30 183 1 150 152
M  V30 184 1 150 151
M  V30 185 1 152 153
M  V30 186 1 154 181
M  V30 187 1 154 156
M  V30 188 1 154 155
M  V30 189 1 157 158
M  V30 190 1 157 165
M  V30 191 1 158 160
M  V30 192 1 158 159
M  V30 193 1 160 161
M  V30 194 1 160 162
M  V30 195 1 162 166
M  V30 196 1 162 163
M  V30 197 1 163 164
M  V30 198 1 163 165
M  V30 199 1 166 168
M  V30 200 1 166 169
M  V30 201 1 166 167
M  V30 202 1 169 170
M  V30 203 1 171 176
M  V30 204 1 171 178
M  V30 205 1 172 171
M  V30 206 1 172 173
M  V30 207 1 173 165
M  V30 208 1 173 174
M  V30 209 1 174 175
M  V30 210 1 174 176
M  V30 211 1 176 177
M  V30 212 1 178 179
M  V30 213 1 178 180
M  V30 214 1 178 196
M  V30 215 1 181 189
M  V30 216 1 181 182
M  V30 217 1 182 184
M  V30 218 1 182 183
M  V30 219 1 184 186
M  V30 220 1 184 185
M  V30 221 1 186 187
M  V30 222 1 186 188
M  V30 223 1 188 196
M  V30 224 1 188 189
M  V30 225 1 189 190
M  V30 226 1 190 192
M  V30 227 1 190 191
M  V30 228 1 192 194
M  V30 229 1 192 193
M  V30 230 1 194 195
M  V30 231 1 194 196
M  V30 232 1 197 198
M  V30 233 1 197 205
M  V30 234 1 198 199
M  V30 235 1 198 200
M  V30 236 1 200 201
M  V30 237 1 200 202
M  V30 238 1 202 203
M  V30 239 1 202 206
M  V30 240 1 203 205
M  V30 241 1 203 204
M  V30 242 1 206 209
M  V30 243 1 206 208
M  V30 244 1 206 207
M  V30 245 1 209 210
M  V30 246 1 211 218
M  V30 247 1 211 216
M  V30 248 1 212 211
M  V30 249 1 212 213
M  V30 250 1 213 205
M  V30 251 1 213 214
M  V30 252 1 214 216
M  V30 253 1 214 215
M  V30 254 1 216 217
M  V30 255 1 218 245
M  V30 256 1 218 219
M  V30 257 1 218 220
M  V30 258 1 221 229
M  V30 259 1 221 222
M  V30 260 1 222 224
M  V30 261 1 222 223
M  V30 262 1 224 226
M  V30 263 1 224 225
M  V30 264 1 226 230
M  V30 265 1 226 227
M  V30 266 1 227 228
M  V30 267 1 227 229
M  V30 268 1 230 232
M  V30 269 1 230 231
M  V30 270 1 230 233
M  V30 271 1 233 234
M  V30 272 1 235 240
M  V30 273 1 235 242
M  V30 274 1 236 235
M  V30 275 1 236 237
M  V30 276 1 237 229
M  V30 277 1 237 238
M  V30 278 1 238 239
M  V30 279 1 238 240
M  V30 280 1 240 241
M  V30 281 1 242 243
M  V30 282 1 242 244
M  V30 283 1 242 260
M  V30 284 1 245 253
M  V30 285 1 245 246
M  V30 286 1 246 248
M  V30 287 1 246 247
M  V30 288 1 248 250
M  V30 289 1 248 249
M  V30 290 1 250 251
M  V30 291 1 250 252
M  V30 292 1 252 260
M  V30 293 1 252 253
M  V30 294 1 253 254
M  V30 295 1 254 256
M  V30 296 1 254 255
M  V30 297 1 256 258
M  V30 298 1 256 257
M  V30 299 1 258 259
M  V30 300 1 258 260
M  V30 301 1 261 269
M  V30 302 1 261 262
M  V30 303 1 262 264
M  V30 304 1 262 263
M  V30 305 1 264 266
M  V30 306 1 264 265
M  V30 307 1 266 270
M  V30 308 1 266 267
M  V30 309 1 267 268
M  V30 310 1 267 269
M  V30 311 1 270 271
M  V30 312 1 270 272
M  V30 313 1 270 273
M  V30 314 1 273 274
M  V30 315 1 275 280
M  V30 316 1 275 282
M  V30 317 1 276 275
M  V30 318 1 276 277
M  V30 319 1 277 269
M  V30 320 1 277 278
M  V30 321 1 278 279
M  V30 322 1 278 280
M  V30 323 1 280 281
M  V30 324 1 282 284
M  V30 325 1 282 283
M  V30 326 1 282 288
M  V30 327 1 285 303
M  V30 328 1 285 287
M  V30 329 1 285 286
M  V30 330 1 285 358
M  V30 331 1 288 289
M  V30 332 1 288 296
M  V30 333 1 289 290
M  V30 334 1 289 291
M  V30 335 1 291 292
M  V30 336 1 291 293
M  V30 337 1 293 295
M  V30 338 1 293 294
M  V30 339 1 295 296
M  V30 340 1 295 303
M  V30 341 1 296 297
M  V30 342 1 297 298
M  V30 343 1 297 299
M  V30 344 1 299 300
M  V30 345 1 299 301
M  V30 346 1 301 303
M  V30 347 1 301 302
M  V30 348 1 304 305
M  V30 349 1 304 312
M  V30 350 1 305 306
M  V30 351 1 305 307
M  V30 352 1 307 308
M  V30 353 1 307 309
M  V30 354 1 309 310
M  V30 355 1 309 313
M  V30 356 1 310 312
M  V30 357 1 310 311
M  V30 358 1 313 316
M  V30 359 1 313 315
M  V30 360 1 313 314
M  V30 361 1 316 317
M  V30 362 1 318 325
M  V30 363 1 318 323
M  V30 364 1 319 318
M  V30 365 1 319 320
M  V30 366 1 320 312
M  V30 367 1 320 321
M  V30 368 1 321 323
M  V30 369 1 321 322
M  V30 370 1 323 324
M  V30 371 1 325 327
M  V30 372 1 325 326
M  V30 373 1 325 328
M  V30 374 1 328 336
M  V30 375 1 328 329
M  V30 376 1 329 330
M  V30 377 1 329 331
M  V30 378 1 331 333
M  V30 379 1 331 332
M  V30 380 1 333 335
M  V30 381 1 333 334
M  V30 382 1 335 336
M  V30 383 1 335 343
M  V30 384 1 336 337
M  V30 385 1 337 339
M  V30 386 1 337 338
M  V30 387 1 339 340
M  V30 388 1 339 341
M  V30 389 1 341 342
M  V30 390 1 341 343
M  V30 391 1 343 386
M  V30 392 1 344 392
M  V30 393 1 344 345
M  V30 394 1 344 352
M  V30 395 1 345 346
M  V30 396 1 345 347
M  V30 397 1 347 348
M  V30 398 1 347 349
M  V30 399 1 349 350
M  V30 400 1 349 353
M  V30 401 1 350 352
M  V30 402 1 350 351
M  V30 403 1 353 355
M  V30 404 1 353 356
M  V30 405 1 353 354
M  V30 406 1 356 357
M  V30 407 1 358 363
M  V30 408 1 359 358
M  V30 409 1 359 392
M  V30 410 1 359 360
M  V30 411 1 360 352
M  V30 412 1 360 361
M  V30 413 1 361 363
M  V30 414 1 361 362
M  V30 415 1 363 364
M  V30 416 1 365 373
M  V30 417 1 365 366
M  V30 418 1 365 390
M  V30 419 1 366 368
M  V30 420 1 366 367
M  V30 421 1 368 370
M  V30 422 1 368 369
M  V30 423 1 370 374
M  V30 424 1 370 371
M  V30 425 1 371 372
M  V30 426 1 371 373
M  V30 427 1 374 377
M  V30 428 1 374 376
M  V30 429 1 374 375
M  V30 430 1 377 378
M  V30 431 1 379 384
M  V30 432 1 379 386
M  V30 433 1 380 379
M  V30 434 1 380 381
M  V30 435 1 380 390
M  V30 436 1 381 373
M  V30 437 1 381 382
M  V30 438 1 382 383
M  V30 439 1 382 384
M  V30 440 1 384 385
M  V30 441 1 386 387
M  V30 442 1 386 388
M  V30 443 1 389 472
M  V30 444 1 389 417
M  V30 445 1 389 457
M  V30 446 1 389 432
M  V30 447 1 389 649
M  V30 448 1 389 664
M  V30 449 1 390 521
M  V30 450 1 390 536
M  V30 451 1 390 481
M  V30 452 1 390 496
M  V30 453 1 391 707
M  V30 454 1 391 692
M  V30 455 1 391 408
M  V30 456 1 391 393
M  V30 457 1 391 609
M  V30 458 1 391 624
M  V30 459 1 392 585
M  V30 460 1 392 600
M  V30 461 1 392 560
M  V30 462 1 392 545
M  V30 463 1 393 401
M  V30 464 1 393 394
M  V30 465 1 394 395
M  V30 466 1 394 396
M  V30 467 1 396 398
M  V30 468 1 396 397
M  V30 469 1 398 399
M  V30 470 1 398 402
M  V30 471 1 399 401
M  V30 472 1 399 400
M  V30 473 1 402 403
M  V30 474 1 402 404
M  V30 475 1 402 405
M  V30 476 1 405 406
M  V30 477 1 407 414
M  V30 478 1 407 412
M  V30 479 1 408 407
M  V30 480 1 408 409
M  V30 481 1 409 401
M  V30 482 1 409 410
M  V30 483 1 410 412
M  V30 484 1 410 411
M  V30 485 1 412 413
M  V30 486 1 414 441
M  V30 487 1 414 415
M  V30 488 1 414 416
M  V30 489 1 417 418
M  V30 490 1 417 425
M  V30 491 1 418 420
M  V30 492 1 418 419
M  V30 493 1 420 421
M  V30 494 1 420 422
M  V30 495 1 422 426
M  V30 496 1 422 423
M  V30 497 1 423 424
M  V30 498 1 423 425
M  V30 499 1 426 428
M  V30 500 1 426 427
M  V30 501 1 426 429
M  V30 502 1 429 430
M  V30 503 1 431 436
M  V30 504 1 431 438
M  V30 505 1 432 431
M  V30 506 1 432 433
M  V30 507 1 433 425
M  V30 508 1 433 434
M  V30 509 1 434 435
M  V30 510 1 434 436
M  V30 511 1 436 437
M  V30 512 1 438 439
M  V30 513 1 438 440
M  V30 514 1 438 456
M  V30 515 1 441 449
M  V30 516 1 441 442
M  V30 517 1 442 444
M  V30 518 1 442 443
M  V30 519 1 444 446
M  V30 520 1 444 445
M  V30 521 1 446 447
M  V30 522 1 446 448
M  V30 523 1 448 456
M  V30 524 1 448 449
M  V30 525 1 449 450
M  V30 526 1 450 452
M  V30 527 1 450 451
M  V30 528 1 452 454
M  V30 529 1 452 453
M  V30 530 1 454 455
M  V30 531 1 454 456
M  V30 532 1 457 465
M  V30 533 1 457 458
M  V30 534 1 458 460
M  V30 535 1 458 459
M  V30 536 1 460 462
M  V30 537 1 460 461
M  V30 538 1 462 466
M  V30 539 1 462 463
M  V30 540 1 463 464
M  V30 541 1 463 465
M  V30 542 1 466 468
M  V30 543 1 466 467
M  V30 544 1 466 469
M  V30 545 1 469 470
M  V30 546 1 471 476
M  V30 547 1 471 478
M  V30 548 1 472 471
M  V30 549 1 472 473
M  V30 550 1 473 465
M  V30 551 1 473 474
M  V30 552 1 474 475
M  V30 553 1 474 476
M  V30 554 1 476 477
M  V30 555 1 478 505
M  V30 556 1 478 480
M  V30 557 1 478 479
M  V30 558 1 481 482
M  V30 559 1 481 489
M  V30 560 1 482 483
M  V30 561 1 482 484
M  V30 562 1 484 485
M  V30 563 1 484 486
M  V30 564 1 486 487
M  V30 565 1 486 490
M  V30 566 1 487 489
M  V30 567 1 487 488
M  V30 568 1 490 493
M  V30 569 1 490 492
M  V30 570 1 490 491
M  V30 571 1 493 494
M  V30 572 1 495 502
M  V30 573 1 495 500
M  V30 574 1 496 495
M  V30 575 1 496 497
M  V30 576 1 497 489
M  V30 577 1 497 498
M  V30 578 1 498 500
M  V30 579 1 498 499
M  V30 580 1 500 501
M  V30 581 1 502 504
M  V30 582 1 502 503
M  V30 583 1 502 520
M  V30 584 1 505 506
M  V30 585 1 505 513
M  V30 586 1 506 508
M  V30 587 1 506 507
M  V30 588 1 508 509
M  V30 589 1 508 510
M  V30 590 1 510 511
M  V30 591 1 510 512
M  V30 592 1 512 513
M  V30 593 1 512 520
M  V30 594 1 513 514
M  V30 595 1 514 515
M  V30 596 1 514 516
M  V30 597 1 516 518
M  V30 598 1 516 517
M  V30 599 1 518 520
M  V30 600 1 518 519
M  V30 601 1 521 522
M  V30 602 1 521 529
M  V30 603 1 522 524
M  V30 604 1 522 523
M  V30 605 1 524 525
M  V30 606 1 524 526
M  V30 607 1 526 530
M  V30 608 1 526 527
M  V30 609 1 527 528
M  V30 610 1 527 529
M  V30 611 1 530 533
M  V30 612 1 530 532
M  V30 613 1 530 531
M  V30 614 1 533 534
M  V30 615 1 535 540
M  V30 616 1 535 542
M  V30 617 1 536 535
M  V30 618 1 536 537
M  V30 619 1 537 529
M  V30 620 1 537 538
M  V30 621 1 538 539
M  V30 622 1 538 540
M  V30 623 1 540 541
M  V30 624 1 542 543
M  V30 625 1 542 544
M  V30 626 1 542 569
M  V30 627 1 545 553
M  V30 628 1 545 546
M  V30 629 1 546 547
M  V30 630 1 546 548
M  V30 631 1 548 550
M  V30 632 1 548 549
M  V30 633 1 550 551
M  V30 634 1 550 554
M  V30 635 1 551 553
M  V30 636 1 551 552
M  V30 637 1 554 555
M  V30 638 1 554 557
M  V30 639 1 554 556
M  V30 640 1 557 558
M  V30 641 1 559 566
M  V30 642 1 559 564
M  V30 643 1 560 559
M  V30 644 1 560 561
M  V30 645 1 561 553
M  V30 646 1 561 562
M  V30 647 1 562 564
M  V30 648 1 562 563
M  V30 649 1 564 565
M  V30 650 1 566 584
M  V30 651 1 566 568
M  V30 652 1 566 567
M  V30 653 1 569 570
M  V30 654 1 569 577
M  V30 655 1 570 571
M  V30 656 1 570 572
M  V30 657 1 572 573
M  V30 658 1 572 574
M  V30 659 1 574 576
M  V30 660 1 574 575
M  V30 661 1 576 577
M  V30 662 1 576 584
M  V30 663 1 577 578
M  V30 664 1 578 579
M  V30 665 1 578 580
M  V30 666 1 580 581
M  V30 667 1 580 582
M  V30 668 1 582 584
M  V30 669 1 582 583
M  V30 670 1 585 593
M  V30 671 1 585 586
M  V30 672 1 586 588
M  V30 673 1 586 587
M  V30 674 1 588 590
M  V30 675 1 588 589
M  V30 676 1 590 594
M  V30 677 1 590 591
M  V30 678 1 591 592
M  V30 679 1 591 593
M  V30 680 1 594 595
M  V30 681 1 594 596
M  V30 682 1 594 597
M  V30 683 1 597 598
M  V30 684 1 599 604
M  V30 685 1 599 606
M  V30 686 1 600 599
M  V30 687 1 600 601
M  V30 688 1 601 593
M  V30 689 1 601 602
M  V30 690 1 602 603
M  V30 691 1 602 604
M  V30 692 1 604 605
M  V30 693 1 606 608
M  V30 694 1 606 607
M  V30 695 1 606 633
M  V30 696 1 609 610
M  V30 697 1 609 617
M  V30 698 1 610 611
M  V30 699 1 610 612
M  V30 700 1 612 613
M  V30 701 1 612 614
M  V30 702 1 614 615
M  V30 703 1 614 618
M  V30 704 1 615 617
M  V30 705 1 615 616
M  V30 706 1 618 621
M  V30 707 1 618 619
M  V30 708 1 618 620
M  V30 709 1 621 622
M  V30 710 1 623 630
M  V30 711 1 623 628
M  V30 712 1 624 623
M  V30 713 1 624 625
M  V30 714 1 625 617
M  V30 715 1 625 626
M  V30 716 1 626 628
M  V30 717 1 626 627
M  V30 718 1 628 629
M  V30 719 1 630 648
M  V30 720 1 630 632
M  V30 721 1 630 631
M  V30 722 1 633 634
M  V30 723 1 633 641
M  V30 724 1 634 635
M  V30 725 1 634 636
M  V30 726 1 636 637
M  V30 727 1 636 638
M  V30 728 1 638 640
M  V30 729 1 638 639
M  V30 730 1 640 641
M  V30 731 1 640 648
M  V30 732 1 641 642
M  V30 733 1 642 643
M  V30 734 1 642 644
M  V30 735 1 644 645
M  V30 736 1 644 646
M  V30 737 1 646 648
M  V30 738 1 646 647
M  V30 739 1 649 650
M  V30 740 1 649 657
M  V30 741 1 650 651
M  V30 742 1 650 652
M  V30 743 1 652 653
M  V30 744 1 652 654
M  V30 745 1 654 655
M  V30 746 1 654 658
M  V30 747 1 655 657
M  V30 748 1 655 656
M  V30 749 1 658 661
M  V30 750 1 658 660
M  V30 751 1 658 659
M  V30 752 1 661 662
M  V30 753 1 663 670
M  V30 754 1 663 668
M  V30 755 1 664 663
M  V30 756 1 664 665
M  V30 757 1 665 657
M  V30 758 1 665 666
M  V30 759 1 666 668
M  V30 760 1 666 667
M  V30 761 1 668 669
M  V30 762 1 670 676
M  V30 763 1 670 671
M  V30 764 1 670 672
M  V30 765 1 673 746
M  V30 766 1 673 674
M  V30 767 1 673 675
M  V30 768 1 673 691
M  V30 769 1 676 684
M  V30 770 1 676 677
M  V30 771 1 677 679
M  V30 772 1 677 678
M  V30 773 1 679 681
M  V30 774 1 679 680
M  V30 775 1 681 682
M  V30 776 1 681 683
M  V30 777 1 683 691
M  V30 778 1 683 684
M  V30 779 1 684 685
M  V30 780 1 685 687
M  V30 781 1 685 686
M  V30 782 1 687 689
M  V30 783 1 687 688
M  V30 784 1 689 690
M  V30 785 1 689 691
M  V30 786 1 692 700
M  V30 787 1 692 693
M  V30 788 1 693 695
M  V30 789 1 693 694
M  V30 790 1 695 697
M  V30 791 1 695 696
M  V30 792 1 697 701
M  V30 793 1 697 698
M  V30 794 1 698 699
M  V30 795 1 698 700
M  V30 796 1 701 702
M  V30 797 1 701 703
M  V30 798 1 701 704
M  V30 799 1 704 705
M  V30 800 1 706 711
M  V30 801 1 706 713
M  V30 802 1 707 706
M  V30 803 1 707 708
M  V30 804 1 708 700
M  V30 805 1 708 709
M  V30 806 1 709 710
M  V30 807 1 709 711
M  V30 808 1 711 712
M  V30 809 1 713 716
M  V30 810 1 713 714
M  V30 811 1 713 715
M  V30 812 1 716 717
M  V30 813 1 716 724
M  V30 814 1 717 719
M  V30 815 1 717 718
M  V30 816 1 719 720
M  V30 817 1 719 721
M  V30 818 1 721 722
M  V30 819 1 721 723
M  V30 820 1 723 731
M  V30 821 1 723 724
M  V30 822 1 724 725
M  V30 823 1 725 726
M  V30 824 1 725 727
M  V30 825 1 727 729
M  V30 826 1 727 728
M  V30 827 1 729 731
M  V30 828 1 729 730
M  V30 829 1 731 774
M  V30 830 1 732 740
M  V30 831 1 732 733
M  V30 832 1 733 735
M  V30 833 1 733 734
M  V30 834 1 735 737
M  V30 835 1 735 736
M  V30 836 1 737 741
M  V30 837 1 737 738
M  V30 838 1 738 739
M  V30 839 1 738 740
M  V30 840 1 741 742
M  V30 841 1 741 744
M  V30 842 1 741 743
M  V30 843 1 744 745
M  V30 844 1 746 751
M  V30 845 1 747 746
M  V30 846 1 747 748
M  V30 847 1 748 740
M  V30 848 1 748 749
M  V30 849 1 749 750
M  V30 850 1 749 751
M  V30 851 1 751 752
M  V30 852 1 753 754
M  V30 853 1 753 761
M  V30 854 1 754 755
M  V30 855 1 754 756
M  V30 856 1 756 757
M  V30 857 1 756 758
M  V30 858 1 758 759
M  V30 859 1 758 762
M  V30 860 1 759 761
M  V30 861 1 759 760
M  V30 862 1 762 763
M  V30 863 1 762 764
M  V30 864 1 762 765
M  V30 865 1 765 766
M  V30 866 1 767 774
M  V30 867 1 767 772
M  V30 868 1 768 767
M  V30 869 1 768 769
M  V30 870 1 769 761
M  V30 871 1 769 770
M  V30 872 1 770 772
M  V30 873 1 770 771
M  V30 874 1 772 773
M  V30 875 1 774 776
M  V30 876 1 774 775
M  V30 877 1 M   END
M  V30 END BOND
M  V30 END CTAB

